<?xml version="1.0" encoding="UTF-8"?>

<!-- generated on 2025-05-30 13:39:02 by Eclipse SUMO netgenerate Version 1.22.0
<netgenerateConfiguration xmlns:xsi="http://www.w3.org/2001/XMLSchema-instance" xsi:noNamespaceSchemaLocation="http://sumo.dlr.de/xsd/netgenerateConfiguration.xsd">

    <random_network>
        <rand value="true"/>
        <rand.iterations value="30"/>
        <rand.max-distance value="1000"/>
        <rand.min-distance value="300"/>
        <rand.min-angle value="30"/>
        <rand.num-tries value="1"/>
        <rand.connectivity value="0.9"/>
        <rand.neighbor-dist1 value="0.0"/>
        <rand.neighbor-dist2 value="0.0"/>
        <rand.neighbor-dist3 value="0.0"/>
        <rand.neighbor-dist4 value="1.0"/>
    </random_network>

    <output>
        <output-file value="network_with_30_tls.net.xml"/>
    </output>

    <building_defaults>
        <default.lanenumber value="3"/>
        <default.speed value="2.77778"/>
    </building_defaults>

    <tls_building>
        <tls.guess value="true"/>
        <tls.guess.threshold value="0"/>
        <tls.default-type value="actuated"/>
    </tls_building>

</netgenerateConfiguration>
-->

<net version="1.20" junctionCornerDetail="5" limitTurnSpeed="5.50" xmlns:xsi="http://www.w3.org/2001/XMLSchema-instance" xsi:noNamespaceSchemaLocation="http://sumo.dlr.de/xsd/net_file.xsd">

    <location netOffset="2135.89,1814.55" convBoundary="0.00,0.00,3619.81,4443.91" origBoundary="-2135.89,-1814.55,1483.92,2629.37" projParameter="!"/>

    <edge id=":1_0" function="internal">
        <lane id=":1_0_0" index="0" speed="2.78" length="30.85" shape="2128.11,1828.80 2126.81,1823.73 2123.06,1818.31 2116.87,1812.56 2108.22,1806.47"/>
    </edge>
    <edge id=":1_1" function="internal">
        <lane id=":1_1_0" index="0" speed="2.78" length="40.64" shape="2128.11,1828.80 2127.50,1818.38 2126.11,1808.99 2124.10,1799.67 2121.65,1789.49"/>
        <lane id=":1_1_1" index="1" speed="2.78" length="40.64" shape="2131.31,1828.75 2130.68,1818.22 2129.26,1808.59 2127.23,1799.04 2124.76,1788.74"/>
        <lane id=":1_1_2" index="2" speed="2.78" length="40.64" shape="2134.51,1828.70 2133.87,1818.06 2132.42,1808.19 2130.35,1798.40 2127.87,1787.99"/>
    </edge>
    <edge id=":1_4" function="internal">
        <lane id=":1_4_0" index="0" speed="2.78" length="3.81" shape="2134.51,1828.70 2135.00,1824.92"/>
    </edge>
    <edge id=":1_5" function="internal">
        <lane id=":1_5_0" index="0" speed="2.78" length="1.44" shape="2134.51,1828.70 2135.29,1827.49"/>
    </edge>
    <edge id=":1_24" function="internal">
        <lane id=":1_24_0" index="0" speed="2.78" length="21.32" shape="2135.00,1824.92 2135.39,1821.82 2138.28,1816.99 2143.17,1814.21 2150.07,1813.48"/>
    </edge>
    <edge id=":1_25" function="internal">
        <lane id=":1_25_0" index="0" speed="2.78" length="3.23" shape="2135.29,1827.49 2136.09,1827.07 2136.89,1827.46 2137.71,1828.65"/>
    </edge>
    <edge id=":1_6" function="internal">
        <lane id=":1_6_0" index="0" speed="2.78" length="9.04" shape="2149.71,1823.08 2147.23,1823.34 2145.47,1824.34 2144.43,1826.07 2144.11,1828.55"/>
    </edge>
    <edge id=":1_7" function="internal">
        <lane id=":1_7_0" index="0" speed="2.78" length="43.54" shape="2149.71,1823.08 2138.68,1821.37 2128.09,1817.57 2117.94,1812.37 2108.22,1806.47"/>
        <lane id=":1_7_1" index="1" speed="2.78" length="43.54" shape="2149.83,1819.88 2139.05,1818.25 2129.01,1814.62 2119.40,1809.59 2109.93,1803.77"/>
        <lane id=":1_7_2" index="2" speed="2.78" length="43.54" shape="2149.95,1816.68 2139.42,1815.13 2129.93,1811.67 2120.87,1806.81 2111.65,1801.07"/>
    </edge>
    <edge id=":1_10" function="internal">
        <lane id=":1_10_0" index="0" speed="2.78" length="5.22" shape="2149.95,1816.68 2144.93,1815.26"/>
    </edge>
    <edge id=":1_11" function="internal">
        <lane id=":1_11_0" index="0" speed="2.78" length="1.44" shape="2149.95,1816.68 2148.78,1815.84"/>
    </edge>
    <edge id=":1_26" function="internal">
        <lane id=":1_26_0" index="0" speed="2.78" length="33.47" shape="2144.93,1815.26 2142.82,1814.67 2136.76,1809.22 2131.78,1800.33 2127.87,1787.99"/>
    </edge>
    <edge id=":1_27" function="internal">
        <lane id=":1_27_0" index="0" speed="2.78" length="3.23" shape="2148.78,1815.84 2148.41,1815.02 2148.84,1814.24 2150.07,1813.48"/>
    </edge>
    <edge id=":1_12" function="internal">
        <lane id=":1_12_0" index="0" speed="2.78" length="26.35" shape="2137.20,1785.75 2139.92,1794.97 2143.01,1801.60 2146.47,1805.64 2150.31,1807.09"/>
    </edge>
    <edge id=":1_13" function="internal">
        <lane id=":1_13_0" index="0" speed="2.78" length="42.74" shape="2137.20,1785.75 2139.73,1796.48 2141.88,1806.99 2143.43,1817.59 2144.11,1828.55"/>
        <lane id=":1_13_1" index="1" speed="2.78" length="42.74" shape="2134.09,1786.50 2136.60,1797.12 2138.73,1807.39 2140.24,1817.74 2140.91,1828.60"/>
        <lane id=":1_13_2" index="2" speed="2.78" length="42.74" shape="2130.98,1787.25 2133.48,1797.76 2135.57,1807.79 2137.05,1817.90 2137.71,1828.65"/>
    </edge>
    <edge id=":1_16" function="internal">
        <lane id=":1_16_0" index="0" speed="2.78" length="2.92" shape="2130.98,1787.25 2130.93,1790.17"/>
    </edge>
    <edge id=":1_17" function="internal">
        <lane id=":1_17_0" index="0" speed="2.78" length="1.44" shape="2130.98,1787.25 2130.48,1788.60"/>
    </edge>
    <edge id=":1_28" function="internal">
        <lane id=":1_28_0" index="0" speed="2.78" length="28.53" shape="2130.93,1790.17 2130.83,1795.82 2126.65,1801.62 2119.81,1803.69 2111.65,1801.07"/>
    </edge>
    <edge id=":1_29" function="internal">
        <lane id=":1_29_0" index="0" speed="2.78" length="3.23" shape="2130.48,1788.60 2129.80,1789.17 2128.93,1788.97 2127.87,1787.99"/>
    </edge>
    <edge id=":1_18" function="internal">
        <lane id=":1_18_0" index="0" speed="2.78" length="9.79" shape="2116.79,1792.96 2119.61,1794.34 2121.36,1794.22 2122.04,1792.60 2121.65,1789.49"/>
    </edge>
    <edge id=":1_19" function="internal">
        <lane id=":1_19_0" index="0" speed="2.78" length="38.61" shape="2116.79,1792.96 2125.26,1798.48 2132.68,1802.82 2140.53,1805.77 2150.31,1807.09"/>
        <lane id=":1_19_1" index="1" speed="2.78" length="38.61" shape="2115.08,1795.66 2123.80,1801.26 2131.76,1805.77 2140.16,1808.89 2150.19,1810.29"/>
        <lane id=":1_19_2" index="2" speed="2.78" length="38.61" shape="2113.36,1798.36 2122.33,1804.04 2130.85,1808.72 2139.79,1812.01 2150.07,1813.48"/>
    </edge>
    <edge id=":1_22" function="internal">
        <lane id=":1_22_0" index="0" speed="2.78" length="10.36" shape="2113.36,1798.36 2121.76,1804.43"/>
    </edge>
    <edge id=":1_23" function="internal">
        <lane id=":1_23_0" index="0" speed="2.78" length="1.44" shape="2113.36,1798.36 2113.95,1799.68"/>
    </edge>
    <edge id=":1_30" function="internal">
        <lane id=":1_30_0" index="0" speed="2.78" length="29.93" shape="2121.76,1804.43 2123.93,1805.99 2131.51,1813.58 2136.10,1821.13 2137.71,1828.65"/>
    </edge>
    <edge id=":1_31" function="internal">
        <lane id=":1_31_0" index="0" speed="2.78" length="3.23" shape="2113.95,1799.68 2113.86,1800.57 2113.09,1801.03 2111.65,1801.07"/>
    </edge>
    <edge id=":100_0" function="internal">
        <lane id=":100_0_0" index="0" speed="2.78" length="4.67" shape="0.17,2452.73 -1.11,2452.07 -1.59,2451.32 -1.28,2450.48 -0.17,2449.55"/>
    </edge>
    <edge id=":102_0" function="internal">
        <lane id=":102_0_0" index="0" speed="2.78" length="4.67" shape="680.59,2695.95 679.25,2696.48 678.37,2696.36 677.93,2695.58 677.95,2694.13"/>
    </edge>
    <edge id=":106_0" function="internal">
        <lane id=":106_0_0" index="0" speed="2.78" length="43.30" shape="3477.19,1989.29 3488.60,1986.31 3497.85,1989.72 3503.13,1998.05 3502.62,2009.83"/>
        <lane id=":106_0_1" index="1" speed="2.78" length="35.43" shape="3478.75,1992.08 3488.09,1989.65 3495.66,1992.44 3499.98,1999.25 3499.56,2008.89"/>
        <lane id=":106_0_2" index="2" speed="2.78" length="27.56" shape="3480.32,1994.88 3487.58,1992.98 3493.47,1995.15 3496.83,2000.45 3496.50,2007.95"/>
    </edge>
    <edge id=":106_3" function="internal">
        <lane id=":106_3_0" index="0" speed="2.78" length="4.91" shape="3487.33,2005.11 3487.63,2003.56 3487.34,2002.74 3486.47,2002.63 3485.02,2003.25"/>
        <lane id=":106_3_1" index="1" speed="2.78" length="14.74" shape="3490.39,2006.06 3491.28,2001.40 3490.42,1998.92 3487.81,1998.60 3483.45,2000.46"/>
        <lane id=":106_3_2" index="2" speed="2.78" length="24.56" shape="3493.44,2007.00 3494.93,1999.24 3493.51,1995.10 3489.16,1994.58 3481.88,1997.67"/>
    </edge>
    <edge id=":11_0" function="internal">
        <lane id=":11_0_0" index="0" speed="2.78" length="41.74" shape="1354.58,689.12 1353.94,677.64 1358.62,669.52 1367.28,665.93 1378.58,668.06"/>
        <lane id=":11_0_1" index="1" speed="2.78" length="34.15" shape="1357.65,688.22 1357.12,678.82 1360.96,672.18 1368.04,669.25 1377.29,670.99"/>
        <lane id=":11_0_2" index="2" speed="2.78" length="26.56" shape="1360.72,687.32 1360.31,680.01 1363.29,674.84 1368.80,672.56 1375.99,673.92"/>
    </edge>
    <edge id=":11_3" function="internal">
        <lane id=":11_3_0" index="0" speed="2.78" length="4.41" shape="1372.11,682.70 1370.79,682.29 1369.99,682.48 1369.70,683.25 1369.93,684.61"/>
        <lane id=":11_3_1" index="1" speed="2.78" length="13.22" shape="1373.40,679.77 1369.45,678.56 1367.04,679.11 1366.17,681.43 1366.86,685.51"/>
        <lane id=":11_3_2" index="2" speed="2.78" length="22.04" shape="1374.70,676.84 1368.10,674.83 1364.09,675.75 1362.65,679.61 1363.79,686.41"/>
    </edge>
    <edge id=":118_0" function="internal">
        <lane id=":118_0_0" index="0" speed="2.78" length="4.67" shape="3621.12,3596.62 3621.15,3598.06 3620.72,3598.85 3619.84,3598.98 3618.50,3598.45"/>
    </edge>
    <edge id=":120_0" function="internal">
        <lane id=":120_0_0" index="0" speed="2.78" length="6.79" shape="3269.81,2716.57 3269.44,2714.15 3269.37,2712.46 3269.66,2710.78 3270.35,2708.43"/>
        <lane id=":120_0_1" index="1" speed="2.78" length="6.79" shape="3272.97,2716.04 3272.66,2714.06 3272.61,2712.67 3272.84,2711.30 3273.40,2709.37"/>
        <lane id=":120_0_2" index="2" speed="2.78" length="6.79" shape="3276.12,2715.50 3275.88,2713.96 3275.84,2712.88 3276.02,2711.81 3276.46,2710.32"/>
    </edge>
    <edge id=":120_3" function="internal">
        <lane id=":120_3_0" index="0" speed="2.78" length="2.26" shape="3285.63,2713.15 3285.57,2713.36 3285.55,2713.51 3285.55,2713.67 3285.59,2713.89"/>
        <lane id=":120_3_1" index="1" speed="2.78" length="2.26" shape="3282.58,2712.20 3282.39,2712.84 3282.31,2713.30 3282.33,2713.76 3282.43,2714.42"/>
        <lane id=":120_3_2" index="2" speed="2.78" length="2.26" shape="3279.52,2711.26 3279.21,2712.33 3279.08,2713.09 3279.11,2713.86 3279.28,2714.96"/>
    </edge>
    <edge id=":13_0" function="internal">
        <lane id=":13_0_0" index="0" speed="2.78" length="19.03" shape="2172.93,700.90 2168.03,695.22 2163.94,691.74 2160.66,690.47 2158.19,691.41"/>
    </edge>
    <edge id=":13_1" function="internal">
        <lane id=":13_1_0" index="0" speed="2.78" length="51.45" shape="2172.93,700.90 2165.64,690.90 2158.14,679.41 2151.19,667.58 2145.55,656.57"/>
        <lane id=":13_1_1" index="1" speed="2.78" length="51.45" shape="2175.45,698.93 2168.22,689.03 2160.86,677.75 2154.04,666.13 2148.45,655.23"/>
        <lane id=":13_1_2" index="2" speed="2.78" length="51.45" shape="2177.97,696.96 2170.80,687.16 2163.57,676.09 2156.88,664.69 2151.36,653.88"/>
    </edge>
    <edge id=":13_4" function="internal">
        <lane id=":13_4_0" index="0" speed="2.78" length="11.24" shape="2177.97,696.96 2171.91,687.49"/>
    </edge>
    <edge id=":13_5" function="internal">
        <lane id=":13_5_0" index="0" speed="2.78" length="3.43" shape="2177.97,696.96 2176.57,693.83"/>
    </edge>
    <edge id=":13_6" function="internal">
        <lane id=":13_6_0" index="0" speed="2.78" length="1.44" shape="2177.97,696.96 2177.87,695.52"/>
    </edge>
    <edge id=":13_34" function="internal">
        <lane id=":13_34_0" index="0" speed="2.78" length="37.87" shape="2171.91,687.49 2170.31,685.00 2166.30,673.40 2165.95,662.15 2169.26,651.26"/>
    </edge>
    <edge id=":13_35" function="internal">
        <lane id=":13_35_0" index="0" speed="2.78" length="27.81" shape="2176.57,693.83 2174.48,689.15 2175.69,682.19 2180.88,677.40 2189.34,676.12"/>
    </edge>
    <edge id=":13_36" function="internal">
        <lane id=":13_36_0" index="0" speed="2.78" length="3.23" shape="2177.87,695.52 2178.25,694.71 2179.13,694.53 2180.49,694.98"/>
    </edge>
    <edge id=":13_7" function="internal">
        <lane id=":13_7_0" index="0" speed="2.78" length="9.65" shape="2188.46,685.68 2185.40,685.75 2183.89,686.66 2183.94,688.43 2185.54,691.04"/>
    </edge>
    <edge id=":13_8" function="internal">
        <lane id=":13_8_0" index="0" speed="2.78" length="33.33" shape="2188.46,685.68 2176.46,684.98 2167.05,685.32 2160.20,686.71 2155.94,689.14"/>
        <lane id=":13_8_1" index="1" speed="2.78" length="36.09" shape="2188.75,682.49 2176.04,681.79 2165.96,682.29 2158.51,683.98 2153.68,686.87"/>
    </edge>
    <edge id=":13_10" function="internal">
        <lane id=":13_10_0" index="0" speed="2.78" length="49.46" shape="2189.05,679.30 2174.99,676.74 2163.53,671.87 2154.69,664.70 2148.45,655.23"/>
    </edge>
    <edge id=":13_11" function="internal">
        <lane id=":13_11_0" index="0" speed="2.78" length="39.37" shape="2189.05,679.30 2177.97,676.68 2171.21,671.30 2169.13,663.26 2172.14,652.64"/>
    </edge>
    <edge id=":13_12" function="internal">
        <lane id=":13_12_0" index="0" speed="2.78" length="2.34" shape="2189.05,679.30 2187.93,678.40 2187.60,677.56"/>
    </edge>
    <edge id=":13_37" function="internal">
        <lane id=":13_37_0" index="0" speed="2.78" length="2.34" shape="2187.60,677.56 2188.07,676.80 2189.34,676.12"/>
    </edge>
    <edge id=":13_13" function="internal">
        <lane id=":13_13_0" index="0" speed="2.78" length="20.00" shape="2180.80,656.79 2179.29,661.95 2180.30,665.83 2183.85,668.43 2189.93,669.74"/>
    </edge>
    <edge id=":13_14" function="internal">
        <lane id=":13_14_0" index="0" speed="2.78" length="38.35" shape="2180.80,656.79 2177.22,666.82 2176.39,676.20 2178.33,684.93 2183.01,693.01"/>
    </edge>
    <edge id=":13_15" function="internal">
        <lane id=":13_15_0" index="0" speed="2.78" length="40.48" shape="2180.80,656.79 2176.03,666.42 2171.06,675.21 2165.31,683.44 2158.19,691.41"/>
        <lane id=":13_15_1" index="1" speed="2.78" length="40.48" shape="2177.92,655.41 2173.24,664.90 2168.49,673.38 2162.95,681.31 2155.94,689.14"/>
        <lane id=":13_15_2" index="2" speed="2.78" length="40.48" shape="2175.03,654.03 2170.46,663.38 2165.92,671.56 2160.60,679.18 2153.68,686.87"/>
    </edge>
    <edge id=":13_18" function="internal">
        <lane id=":13_18_0" index="0" speed="2.78" length="3.28" shape="2175.03,654.03 2172.98,656.59"/>
    </edge>
    <edge id=":13_19" function="internal">
        <lane id=":13_19_0" index="0" speed="2.78" length="1.44" shape="2175.03,654.03 2173.79,654.76"/>
    </edge>
    <edge id=":13_38" function="internal">
        <lane id=":13_38_0" index="0" speed="2.78" length="27.62" shape="2172.98,656.59 2169.71,660.68 2163.14,662.87 2156.59,660.60 2151.36,653.88"/>
    </edge>
    <edge id=":13_39" function="internal">
        <lane id=":13_39_0" index="0" speed="2.78" length="3.23" shape="2173.79,654.76 2172.90,654.78 2172.35,654.07 2172.14,652.64"/>
    </edge>
    <edge id=":13_20" function="internal">
        <lane id=":13_20_0" index="0" speed="2.78" length="9.49" shape="2160.07,649.84 2161.63,652.36 2163.20,653.20 2164.78,652.38 2166.37,649.88"/>
    </edge>
    <edge id=":13_21" function="internal">
        <lane id=":13_21_0" index="0" speed="2.78" length="39.36" shape="2160.07,649.84 2165.62,659.26 2172.39,666.25 2180.40,670.81 2189.63,672.93"/>
    </edge>
    <edge id=":13_22" function="internal">
        <lane id=":13_22_0" index="0" speed="2.78" length="49.26" shape="2160.07,649.84 2165.41,660.36 2171.70,671.11 2178.54,681.53 2185.54,691.04"/>
        <lane id=":13_22_1" index="1" speed="2.78" length="49.26" shape="2157.16,651.19 2162.57,661.80 2168.99,672.77 2175.96,683.41 2183.01,693.01"/>
        <lane id=":13_22_2" index="2" speed="2.78" length="49.26" shape="2154.26,652.53 2159.72,663.25 2166.28,674.43 2173.38,685.28 2180.49,694.98"/>
    </edge>
    <edge id=":13_25" function="internal">
        <lane id=":13_25_0" index="0" speed="2.78" length="5.92" shape="2154.26,652.53 2156.31,658.09"/>
    </edge>
    <edge id=":13_26" function="internal">
        <lane id=":13_26_0" index="0" speed="2.78" length="1.44" shape="2154.26,652.53 2154.04,653.96"/>
    </edge>
    <edge id=":13_40" function="internal">
        <lane id=":13_40_0" index="0" speed="2.78" length="30.65" shape="2156.31,658.09 2158.25,663.35 2159.48,672.67 2157.96,680.51 2153.68,686.87"/>
    </edge>
    <edge id=":13_41" function="internal">
        <lane id=":13_41_0" index="0" speed="2.78" length="3.23" shape="2154.04,653.96 2153.48,654.66 2152.59,654.63 2151.36,653.88"/>
    </edge>
    <edge id=":13_27" function="internal">
        <lane id=":13_27_0" index="0" speed="2.78" length="24.86" shape="2146.92,680.05 2149.28,676.16 2149.84,670.95 2148.60,664.42 2145.55,656.57"/>
    </edge>
    <edge id=":13_28" function="internal">
        <lane id=":13_28_0" index="0" speed="2.78" length="37.23" shape="2146.92,680.05 2153.54,672.78 2158.21,666.08 2162.10,658.81 2166.37,649.88"/>
        <lane id=":13_28_1" index="1" speed="2.78" length="37.23" shape="2149.18,682.32 2155.89,674.92 2160.78,667.90 2164.88,660.34 2169.26,651.26"/>
        <lane id=":13_28_2" index="2" speed="2.78" length="37.23" shape="2151.43,684.60 2158.25,677.05 2163.35,669.73 2167.67,661.86 2172.14,652.64"/>
    </edge>
    <edge id=":13_31" function="internal">
        <lane id=":13_31_0" index="0" speed="2.78" length="4.02" shape="2151.43,684.60 2154.61,682.13"/>
    </edge>
    <edge id=":13_32" function="internal">
        <lane id=":13_32_0" index="0" speed="2.78" length="2.56" shape="2151.43,684.60 2153.61,683.27"/>
    </edge>
    <edge id=":13_33" function="internal">
        <lane id=":13_33_0" index="0" speed="2.78" length="1.44" shape="2151.43,684.60 2152.85,684.32"/>
    </edge>
    <edge id=":13_42" function="internal">
        <lane id=":13_42_0" index="0" speed="2.78" length="37.22" shape="2154.61,682.13 2159.07,678.66 2167.98,674.73 2178.17,672.82 2189.63,672.93"/>
    </edge>
    <edge id=":13_43" function="internal">
        <lane id=":13_43_0" index="0" speed="2.78" length="33.43" shape="2153.61,683.27 2158.63,680.21 2165.68,681.07 2172.88,686.29 2180.49,694.98"/>
    </edge>
    <edge id=":13_44" function="internal">
        <lane id=":13_44_0" index="0" speed="2.78" length="3.23" shape="2152.85,684.32 2153.69,684.60 2153.97,685.45 2153.68,686.87"/>
    </edge>
    <edge id=":140_0" function="internal">
        <lane id=":140_0_0" index="0" speed="2.78" length="4.67" shape="957.60,4293.27 956.85,4292.04 956.83,4291.15 957.53,4290.59 958.95,4290.38"/>
    </edge>
    <edge id=":16_0" function="internal">
        <lane id=":16_0_0" index="0" speed="2.78" length="9.50" shape="1265.85,1467.85 1264.09,1465.46 1262.46,1464.74 1260.96,1465.69 1259.58,1468.32"/>
    </edge>
    <edge id=":16_1" function="internal">
        <lane id=":16_1_0" index="0" speed="2.78" length="33.58" shape="1265.85,1467.85 1249.36,1438.60"/>
        <lane id=":16_1_1" index="1" speed="2.78" length="33.58" shape="1268.64,1466.28 1252.15,1437.03"/>
        <lane id=":16_1_2" index="2" speed="2.78" length="33.58" shape="1271.43,1464.71 1254.94,1435.45"/>
    </edge>
    <edge id=":16_4" function="internal">
        <lane id=":16_4_0" index="0" speed="2.78" length="3.96" shape="1271.43,1464.71 1270.13,1460.97"/>
    </edge>
    <edge id=":16_5" function="internal">
        <lane id=":16_5_0" index="0" speed="2.78" length="1.44" shape="1271.43,1464.71 1271.53,1463.28"/>
    </edge>
    <edge id=":16_22" function="internal">
        <lane id=":16_22_0" index="0" speed="2.78" length="27.96" shape="1270.13,1460.97 1268.45,1456.07 1269.50,1448.83 1274.40,1444.05 1282.93,1442.78"/>
    </edge>
    <edge id=":16_23" function="internal">
        <lane id=":16_23_0" index="0" speed="2.78" length="3.23" shape="1271.53,1463.28 1272.04,1462.54 1272.93,1462.49 1274.21,1463.14"/>
    </edge>
    <edge id=":16_6" function="internal">
        <lane id=":16_6_0" index="0" speed="2.78" length="11.05" shape="1282.15,1452.35 1279.38,1452.61 1278.06,1453.98 1278.20,1456.44 1279.79,1460.01"/>
    </edge>
    <edge id=":16_7" function="internal">
        <lane id=":16_7_0" index="0" speed="2.78" length="34.08" shape="1282.41,1449.16 1273.89,1449.72 1266.75,1452.91 1260.98,1458.74 1256.59,1467.19"/>
    </edge>
    <edge id=":16_8" function="internal">
        <lane id=":16_8_0" index="0" speed="2.78" length="18.00" shape="1282.41,1449.16 1271.32,1447.65 1264.78,1445.76"/>
        <lane id=":16_8_1" index="1" speed="2.78" length="13.52" shape="1282.67,1445.97 1272.37,1444.61 1269.35,1443.78"/>
    </edge>
    <edge id=":16_10" function="internal">
        <lane id=":16_10_0" index="0" speed="2.78" length="2.34" shape="1282.67,1445.97 1281.54,1445.07 1281.20,1444.24"/>
    </edge>
    <edge id=":16_24" function="internal">
        <lane id=":16_24_0" index="0" speed="2.78" length="15.69" shape="1264.78,1445.76 1262.58,1445.12 1256.19,1441.58 1252.15,1437.03"/>
        <lane id=":16_24_1" index="0" speed="2.78" length="17.07" shape="1269.35,1443.78 1264.31,1442.41 1258.50,1439.35 1254.94,1435.45"/>
    </edge>
    <edge id=":16_25" function="internal">
        <lane id=":16_25_0" index="0" speed="2.78" length="2.34" shape="1281.20,1444.24 1281.67,1443.48 1282.93,1442.78"/>
    </edge>
    <edge id=":16_11" function="internal">
        <lane id=":16_11_0" index="0" speed="2.78" length="21.38" shape="1263.29,1430.73 1265.45,1432.66 1269.53,1434.26 1275.53,1435.50 1283.45,1436.40"/>
    </edge>
    <edge id=":16_12" function="internal">
        <lane id=":16_12_0" index="0" speed="2.78" length="33.60" shape="1263.29,1430.73 1279.79,1460.01"/>
        <lane id=":16_12_1" index="1" speed="2.78" length="33.60" shape="1260.51,1432.30 1277.00,1461.57"/>
        <lane id=":16_12_2" index="2" speed="2.78" length="33.60" shape="1257.72,1433.88 1274.21,1463.14"/>
    </edge>
    <edge id=":16_15" function="internal">
        <lane id=":16_15_0" index="0" speed="2.78" length="3.26" shape="1257.72,1433.88 1258.65,1437.00"/>
    </edge>
    <edge id=":16_16" function="internal">
        <lane id=":16_16_0" index="0" speed="2.78" length="1.44" shape="1257.72,1433.88 1257.62,1435.32"/>
    </edge>
    <edge id=":16_26" function="internal">
        <lane id=":16_26_0" index="0" speed="2.78" length="29.93" shape="1258.65,1437.00 1259.28,1439.10 1259.11,1446.20 1257.22,1455.19 1253.59,1466.05"/>
    </edge>
    <edge id=":16_27" function="internal">
        <lane id=":16_27_0" index="0" speed="2.78" length="3.23" shape="1257.62,1435.32 1257.12,1436.06 1256.22,1436.10 1254.94,1435.45"/>
    </edge>
    <edge id=":16_17" function="internal">
        <lane id=":16_17_0" index="0" speed="2.78" length="24.89" shape="1244.62,1462.64 1247.68,1453.87 1249.49,1446.93 1250.05,1441.84 1249.36,1438.60"/>
        <lane id=":16_17_1" index="1" speed="2.78" length="27.65" shape="1247.61,1463.78 1250.86,1454.31 1252.70,1446.69 1253.13,1440.93 1252.15,1437.03"/>
    </edge>
    <edge id=":16_19" function="internal">
        <lane id=":16_19_0" index="0" speed="2.78" length="46.57" shape="1247.61,1463.78 1253.58,1452.41 1261.50,1444.59 1271.37,1440.32 1283.19,1439.59"/>
    </edge>
    <edge id=":16_20" function="internal">
        <lane id=":16_20_0" index="0" speed="2.78" length="13.80" shape="1250.60,1464.91 1255.36,1457.84 1260.21,1455.77"/>
    </edge>
    <edge id=":16_21" function="internal">
        <lane id=":16_21_0" index="0" speed="2.78" length="2.34" shape="1250.60,1464.91 1251.78,1464.08 1252.67,1463.99"/>
    </edge>
    <edge id=":16_28" function="internal">
        <lane id=":16_28_0" index="0" speed="2.78" length="17.13" shape="1260.21,1455.77 1261.74,1455.12 1268.46,1456.86 1274.21,1463.14"/>
    </edge>
    <edge id=":16_29" function="internal">
        <lane id=":16_29_0" index="0" speed="2.78" length="2.34" shape="1252.67,1463.99 1253.27,1464.65 1253.59,1466.05"/>
    </edge>
    <edge id=":18_0" function="internal">
        <lane id=":18_0_0" index="0" speed="2.78" length="35.34" shape="2864.70,2351.26 2856.18,2356.13 2849.15,2360.11 2841.97,2363.77 2832.98,2367.66"/>
        <lane id=":18_0_1" index="1" speed="2.78" length="35.34" shape="2863.13,2348.47 2854.67,2353.32 2847.77,2357.23 2840.71,2360.83 2831.78,2364.70"/>
        <lane id=":18_0_2" index="2" speed="2.78" length="35.34" shape="2861.57,2345.68 2853.16,2350.50 2846.39,2354.35 2839.46,2357.89 2830.59,2361.73"/>
    </edge>
    <edge id=":18_3" function="internal">
        <lane id=":18_3_0" index="0" speed="2.78" length="3.11" shape="2861.57,2345.68 2858.58,2346.56"/>
        <lane id=":18_3_1" index="1" speed="2.78" length="2.96" shape="2861.57,2345.68 2858.72,2346.48"/>
    </edge>
    <edge id=":18_5" function="internal">
        <lane id=":18_5_0" index="0" speed="2.78" length="1.44" shape="2861.57,2345.68 2860.13,2345.57"/>
    </edge>
    <edge id=":18_15" function="internal">
        <lane id=":18_15_0" index="0" speed="2.78" length="31.93" shape="2858.58,2346.56 2852.19,2348.43 2844.42,2346.34 2839.70,2340.17 2839.47,2330.72"/>
        <lane id=":18_15_1" index="0" speed="2.78" length="28.20" shape="2858.72,2346.48 2853.33,2347.98 2846.65,2345.80 2842.68,2339.99 2842.59,2331.44"/>
    </edge>
    <edge id=":18_16" function="internal">
        <lane id=":18_16_0" index="0" speed="2.78" length="3.23" shape="2860.13,2345.57 2859.39,2345.07 2859.35,2344.18 2860.00,2342.89"/>
    </edge>
    <edge id=":18_6" function="internal">
        <lane id=":18_6_0" index="0" speed="2.78" length="9.61" shape="2851.94,2333.61 2851.61,2336.63 2852.31,2338.25 2854.07,2338.48 2856.87,2337.31"/>
    </edge>
    <edge id=":18_7" function="internal">
        <lane id=":18_7_0" index="0" speed="2.78" length="37.13" shape="2848.83,2332.89 2845.37,2345.19 2841.38,2354.60 2836.85,2361.10 2831.78,2364.70"/>
        <lane id=":18_7_1" index="1" speed="2.78" length="34.10" shape="2845.71,2332.17 2842.51,2343.72 2838.93,2352.50 2834.95,2358.50 2830.59,2361.73"/>
    </edge>
    <edge id=":18_9" function="internal">
        <lane id=":18_9_0" index="0" speed="2.78" length="2.34" shape="2845.71,2332.17 2844.66,2333.16 2843.79,2333.36"/>
    </edge>
    <edge id=":18_17" function="internal">
        <lane id=":18_17_0" index="0" speed="2.78" length="2.34" shape="2843.79,2333.36 2843.10,2332.79 2842.59,2331.44"/>
    </edge>
    <edge id=":18_10" function="internal">
        <lane id=":18_10_0" index="0" speed="2.78" length="25.07" shape="2827.00,2352.82 2829.27,2350.72 2831.58,2346.21 2833.94,2339.31 2836.36,2330.00"/>
    </edge>
    <edge id=":18_11" function="internal">
        <lane id=":18_11_0" index="0" speed="2.78" length="34.11" shape="2827.00,2352.82 2835.70,2349.07 2842.25,2345.72 2848.64,2342.04 2856.87,2337.31"/>
        <lane id=":18_11_1" index="1" speed="2.78" length="34.11" shape="2828.20,2355.79 2836.95,2352.01 2843.63,2348.60 2850.15,2344.86 2858.44,2340.10"/>
        <lane id=":18_11_2" index="2" speed="2.78" length="34.11" shape="2829.39,2358.76 2838.20,2354.95 2845.01,2351.48 2851.66,2347.68 2860.00,2342.89"/>
    </edge>
    <edge id=":18_14" function="internal">
        <lane id=":18_14_0" index="0" speed="2.78" length="1.44" shape="2829.39,2358.76 2830.80,2359.05"/>
    </edge>
    <edge id=":18_18" function="internal">
        <lane id=":18_18_0" index="0" speed="2.78" length="3.23" shape="2830.80,2359.05 2831.47,2359.65 2831.40,2360.54 2830.59,2361.73"/>
    </edge>
    <edge id=":2_0" function="internal">
        <lane id=":2_0_0" index="0" speed="2.78" length="9.78" shape="1918.90,945.13 1917.83,942.18 1916.49,941.05 1914.88,941.73 1912.99,944.24"/>
    </edge>
    <edge id=":2_1" function="internal">
        <lane id=":2_1_0" index="0" speed="2.78" length="32.39" shape="1918.90,945.13 1915.86,934.77 1912.26,926.75 1908.12,921.06 1903.43,917.70"/>
        <lane id=":2_1_1" index="1" speed="2.78" length="35.31" shape="1922.01,944.38 1918.72,933.31 1914.74,924.69 1910.07,918.51 1904.73,914.77"/>
        <lane id=":2_1_2" index="2" speed="2.78" length="38.24" shape="1925.12,943.64 1921.57,931.85 1917.21,922.63 1912.03,915.96 1906.02,911.84"/>
    </edge>
    <edge id=":2_4" function="internal">
        <lane id=":2_4_0" index="0" speed="2.78" length="6.55" shape="1925.12,943.64 1923.89,937.20"/>
    </edge>
    <edge id=":2_5" function="internal">
        <lane id=":2_5_0" index="0" speed="2.78" length="1.44" shape="1925.12,943.64 1925.62,942.28"/>
    </edge>
    <edge id=":2_24" function="internal">
        <lane id=":2_24_0" index="0" speed="2.78" length="30.50" shape="1923.89,937.20 1922.71,930.98 1922.15,920.79 1923.44,913.07 1926.58,907.80"/>
    </edge>
    <edge id=":2_25" function="internal">
        <lane id=":2_25_0" index="0" speed="2.78" length="3.23" shape="1925.62,942.28 1926.30,941.71 1927.17,941.91 1928.23,942.89"/>
    </edge>
    <edge id=":2_6" function="internal">
        <lane id=":2_6_0" index="0" speed="2.78" length="27.40" shape="1933.35,914.61 1931.80,917.89 1931.47,923.44 1932.36,931.28 1934.45,941.39"/>
    </edge>
    <edge id=":2_7" function="internal">