<?xml version="1.0" encoding="UTF-8"?>

<!-- generated on 2025-06-12 15:25:57 by Eclipse SUMO duarouter Version 1.22.0
<duarouterConfiguration xmlns:xsi="http://www.w3.org/2001/XMLSchema-instance" xsi:noNamespaceSchemaLocation="http://sumo.dlr.de/xsd/duarouterConfiguration.xsd">

    <input>
        <net-file value="../xml_files/network_with_30_tls.net.xml"/>
        <additional-files value="../vtypes.add.xml"/>
        <route-files value="../trips.xml"/>
    </input>

    <output>
        <output-file value="runtime_routes.xml"/>
    </output>

</duarouterConfiguration>
-->

<routes xmlns:xsi="http://www.w3.org/2001/XMLSchema-instance" xsi:noNamespaceSchemaLocation="http://sumo.dlr.de/xsd/routes_file.xsd">
    <vType id="slow_vehicle" length="5.00" minGap="2.50" maxSpeed="1.39" accel="1.0" decel="9.0" sigma="0.5"/>
    <vehicle id="vehicle_1" type="slow_vehicle" depart="0.00">
        <route edges="10 -5 9 57 -57"/>
    </vehicle>
    <vehicle id="vehicle_2" type="slow_vehicle" depart="10.00">
        <route edges="121 -138 -107 -19"/>
    </vehicle>
    <vehicle id="vehicle_3" type="slow_vehicle" depart="20.00">
        <route edges="-97 -14 10"/>
    </vehicle>
    <vehicle id="vehicle_4" type="slow_vehicle" depart="30.00">
        <route edges="-14 10 17 39 -39"/>
    </vehicle>
    <vehicle id="vehicle_5" type="slow_vehicle" depart="40.00">
        <route edges="78 -50 48 -39 35"/>
    </vehicle>
    <vehicle id="vehicle_6" type="slow_vehicle" depart="50.00">
        <route edges="-121 -86 -25 -7 5 17 35"/>
    </vehicle>
    <vehicle id="vehicle_7" type="slow_vehicle" depart="60.00">
        <route edges="-78 -25 -7 3 14 93"/>
    </vehicle>
    <vehicle id="vehicle_8" type="slow_vehicle" depart="70.00">
        <route edges="-91 -14 -3 7 21 48"/>
    </vehicle>
    <vehicle id="vehicle_9" type="slow_vehicle" depart="80.00">
        <route edges="19 -19 25 82"/>
    </vehicle>
    <vehicle id="vehicle_10" type="slow_vehicle" depart="90.00">
        <route edges="17 39 101"/>
    </vehicle>
    <vehicle id="vehicle_11" type="slow_vehicle" depart="100.00">
        <route edges="-101 -39 -17 -5 9 55"/>
    </vehicle>
    <vehicle id="vehicle_12" type="slow_vehicle" depart="110.00">
        <route edges="-17 17 39 -48 50 -78"/>
    </vehicle>
    <vehicle id="vehicle_13" type="slow_vehicle" depart="120.00">
        <route edges="-15 -5 7 25 82"/>
    </vehicle>
    <vehicle id="vehicle_14" type="slow_vehicle" depart="130.00">
        <route edges="-35 -17 -5 9 55 -19"/>
    </vehicle>
    <vehicle id="vehicle_15" type="slow_vehicle" depart="140.00">
        <route edges="91 -91 -14 14"/>
    </vehicle>
    <vehicle id="vehicle_16" type="slow_vehicle" depart="150.00">
        <route edges="-50 50 -71"/>
    </vehicle>
    <vehicle id="vehicle_17" type="slow_vehicle" depart="160.00">
        <route edges="9 -9 5 15 -12"/>
    </vehicle>
    <vehicle id="vehicle_18" type="slow_vehicle" depart="170.00">
        <route edges="117 -80 -25 -7 3 14 97 -132"/>
    </vehicle>
    <vehicle id="vehicle_19" type="slow_vehicle" depart="180.00">
        <route edges="-35 -17 -5 9 55"/>
    </vehicle>
    <vehicle id="vehicle_20" type="slow_vehicle" depart="190.00">
        <route edges="117 -80 -25 19 107 138"/>
    </vehicle>
    <vehicle id="vehicle_21" type="slow_vehicle" depart="200.00">
        <route edges="141 -141 -73 -47 -21 -7 3 14 93 126"/>
    </vehicle>
    <vehicle id="vehicle_22" type="slow_vehicle" depart="210.00">
        <route edges="-103 -39 -17 -5 3"/>
    </vehicle>
    <vehicle id="vehicle_23" type="slow_vehicle" depart="220.00">
        <route edges="19 -55 57 -91 91"/>
    </vehicle>
    <vehicle id="vehicle_24" type="slow_vehicle" depart="230.00">
        <route edges="-25 -7 5 17 41 66"/>
    </vehicle>
    <vehicle id="vehicle_25" type="slow_vehicle" depart="240.00">
        <route edges="99 131 -57 55 107 138 -121 121"/>
    </vehicle>
    <vehicle id="vehicle_26" type="slow_vehicle" depart="250.00">
        <route edges="-5 3 14 97 -126"/>
    </vehicle>
    <vehicle id="vehicle_27" type="slow_vehicle" depart="260.00">
        <route edges="-121 -86 -25 21"/>
    </vehicle>
    <vehicle id="vehicle_28" type="slow_vehicle" depart="270.00">
        <route edges="57 -131 132 -132"/>
    </vehicle>
    <vehicle id="vehicle_29" type="slow_vehicle" depart="280.00">
        <route edges="21 50 -78 -25"/>
    </vehicle>
    <vehicle id="vehicle_30" type="slow_vehicle" depart="290.00">
        <route edges="-57 57 -91 -14"/>
    </vehicle>
    <vehicle id="vehicle_31" type="slow_vehicle" depart="300.00">
        <route edges="-103 -48 47"/>
    </vehicle>
    <vehicle id="vehicle_32" type="slow_vehicle" depart="310.00">
        <route edges="-117 -86 78 -50 48 -39"/>
    </vehicle>
    <vehicle id="vehicle_33" type="slow_vehicle" depart="320.00">
        <route edges="-132 -99 97"/>
    </vehicle>
    <vehicle id="vehicle_34" type="slow_vehicle" depart="330.00">
        <route edges="-41 -17 -5 7"/>
    </vehicle>
    <vehicle id="vehicle_35" type="slow_vehicle" depart="340.00">
        <route edges="25 -25 -7 5 17 35"/>
    </vehicle>
    <vehicle id="vehicle_36" type="slow_vehicle" depart="350.00">
        <route edges="21 47 73 141 -141"/>
    </vehicle>
    <vehicle id="vehicle_37" type="slow_vehicle" depart="360.00">
        <route edges="-12 14 -14"/>
    </vehicle>
    <vehicle id="vehicle_38" type="slow_vehicle" depart="370.00">
        <route edges="101 -101 -48 50 -78"/>
    </vehicle>
    <vehicle id="vehicle_39" type="slow_vehicle" depart="380.00">
        <route edges="-86 -25 -7 3 14 99"/>
    </vehicle>
    <vehicle id="vehicle_40" type="slow_vehicle" depart="390.00">
        <route edges="19 -19 21 48 -39"/>
    </vehicle>
    <vehicle id="vehicle_41" type="slow_vehicle" depart="400.00">
        <route edges="57 -57 -9 5 17 39 -39"/>
    </vehicle>
    <vehicle id="vehicle_42" type="slow_vehicle" depart="410.00">
        <route edges="93 126 -97 -14 -3 7 25 86 121 -138 -107"/>
    </vehicle>
    <vehicle id="vehicle_43" type="slow_vehicle" depart="420.00">
        <route edges="-39 -17 -5 9 -9"/>
    </vehicle>
    <vehicle id="vehicle_44" type="slow_vehicle" depart="430.00">
        <route edges="10 17 41 66"/>
    </vehicle>
    <vehicle id="vehicle_45" type="slow_vehicle" depart="440.00">
        <route edges="-101 -48 50 -78 80"/>
    </vehicle>
    <vehicle id="vehicle_46" type="slow_vehicle" depart="450.00">
        <route edges="-41 39 -48 47 73"/>
    </vehicle>
    <vehicle id="vehicle_47" type="slow_vehicle" depart="460.00">
        <route edges="-86 -25"/>
    </vehicle>
    <vehicle id="vehicle_48" type="slow_vehicle" depart="470.00">
        <route edges="-7 3 14 91"/>
    </vehicle>
    <vehicle id="vehicle_49" type="slow_vehicle" depart="480.00">
        <route edges="101 -101"/>
    </vehicle>
    <vehicle id="vehicle_50" type="slow_vehicle" depart="490.00">
        <route edges="-138 -107 -19 21 -21"/>
    </vehicle>
    <vehicle id="vehicle_51" type="slow_vehicle" depart="500.00">
        <route edges="-19 25 86"/>
    </vehicle>
    <vehicle id="vehicle_52" type="slow_vehicle" depart="510.00">
        <route edges="-80 -25"/>
    </vehicle>
    <vehicle id="vehicle_53" type="slow_vehicle" depart="520.00">
        <route edges="-66 -41 -17 -5 7 -7"/>
    </vehicle>
    <vehicle id="vehicle_54" type="slow_vehicle" depart="530.00">
        <route edges="82 -82 -25 -7 3 14 97 -126"/>
    </vehicle>
    <vehicle id="vehicle_55" type="slow_vehicle" depart="540.00">
        <route edges="-66 -41 39 -48 48"/>
    </vehicle>
    <vehicle id="vehicle_56" type="slow_vehicle" depart="550.00">
        <route edges="-107 107 138 -121 -86"/>
    </vehicle>
    <vehicle id="vehicle_57" type="slow_vehicle" depart="560.00">
        <route edges="10 17 39 101 -101"/>
    </vehicle>
    <vehicle id="vehicle_58" type="slow_vehicle" depart="570.00">
        <route edges="-103 -48 50 -78 86 121 -138 -107"/>
    </vehicle>
    <vehicle id="vehicle_59" type="slow_vehicle" depart="580.00">
        <route edges="93 126 -132 131"/>
    </vehicle>
    <vehicle id="vehicle_60" type="slow_vehicle" depart="590.00">
        <route edges="15 -12 -3 7 21"/>
    </vehicle>
    <vehicle id="vehicle_61" type="slow_vehicle" depart="600.00">
        <route edges="-9 7 21 47 73 141 -141"/>
    </vehicle>
    <vehicle id="vehicle_62" type="slow_vehicle" depart="610.00">
        <route edges="-93 -14 10 17 39 101"/>
    </vehicle>
    <vehicle id="vehicle_63" type="slow_vehicle" depart="620.00">
        <route edges="-141 -73 -47 -21"/>
    </vehicle>
    <vehicle id="vehicle_64" type="slow_vehicle" depart="630.00">
        <route edges="50 -50 -21 19 107"/>
    </vehicle>
    <vehicle id="vehicle_65" type="slow_vehicle" depart="640.00">
        <route edges="-25 19 -55 57 -131"/>
    </vehicle>
    <vehicle id="vehicle_66" type="slow_vehicle" depart="650.00">
        <route edges="-138 -107 -19 25 86"/>
    </vehicle>
    <vehicle id="vehicle_67" type="slow_vehicle" depart="660.00">
        <route edges="82 -82 -25 -7 3 14 93 126"/>
    </vehicle>
    <vehicle id="vehicle_68" type="slow_vehicle" depart="670.00">
        <route edges="-21 19 -55 57 -91"/>
    </vehicle>
    <vehicle id="vehicle_69" type="slow_vehicle" depart="680.00">
        <route edges="25 -25 -7 3 14 97 -126 -93"/>
    </vehicle>
    <vehicle id="vehicle_70" type="slow_vehicle" depart="690.00">
        <route edges="3 -3 9 55 -19"/>
    </vehicle>
    <vehicle id="vehicle_71" type="slow_vehicle" depart="700.00">
        <route edges="93 126 -97 -14 10 17 41"/>
    </vehicle>
    <vehicle id="vehicle_72" type="slow_vehicle" depart="710.00">
        <route edges="-7 7 25 82"/>
    </vehicle>
    <vehicle id="vehicle_73" type="slow_vehicle" depart="720.00">
        <route edges="-99 -14 -3 7 21 47"/>
    </vehicle>
    <vehicle id="vehicle_74" type="slow_vehicle" depart="730.00">
        <route edges="-21 -7 3 14 97 -132"/>
    </vehicle>
    <vehicle id="vehicle_75" type="slow_vehicle" depart="740.00">
        <route edges="5 -10 14 97 -126 -93"/>
    </vehicle>
    <vehicle id="vehicle_76" type="slow_vehicle" depart="750.00">
        <route edges="-86 -25 -7 3 14 99"/>
    </vehicle>
    <vehicle id="vehicle_77" type="slow_vehicle" depart="760.00">
        <route edges="78 -50 -21 -7 5"/>
    </vehicle>
    <vehicle id="vehicle_78" type="slow_vehicle" depart="770.00">
        <route edges="-57 55 -19 21 47 71"/>
    </vehicle>
    <vehicle id="vehicle_79" type="slow_vehicle" depart="780.00">
        <route edges="-48 -21 19 -55 55"/>
    </vehicle>
    <vehicle id="vehicle_80" type="slow_vehicle" depart="790.00">
        <route edges="73 141 -141 -73 -47 -21 19 -55 57 -131"/>
    </vehicle>
    <vehicle id="vehicle_81" type="slow_vehicle" depart="800.00">
        <route edges="-86 78"/>
    </vehicle>
    <vehicle id="vehicle_82" type="slow_vehicle" depart="810.00">
        <route edges="7 -7 9"/>
    </vehicle>
    <vehicle id="vehicle_83" type="slow_vehicle" depart="820.00">
        <route edges="132 -132"/>
    </vehicle>
    <vehicle id="vehicle_84" type="slow_vehicle" depart="830.00">
        <route edges="-91 -14 -3 7 25 82 -82"/>
    </vehicle>
    <vehicle id="vehicle_85" type="slow_vehicle" depart="840.00">
        <route edges="17 -17 -5 7 25 86 -86"/>
    </vehicle>
    <vehicle id="vehicle_86" type="slow_vehicle" depart="850.00">
        <route edges="-9 9 55 107 138 -121"/>
    </vehicle>
    <vehicle id="vehicle_87" type="slow_vehicle" depart="860.00">
        <route edges="138 -121 -86 -25 -7 7"/>
    </vehicle>
    <vehicle id="vehicle_88" type="slow_vehicle" depart="870.00">
        <route edges="121 -138 -107 -19 21 47 73 141 -141"/>
    </vehicle>
    <vehicle id="vehicle_89" type="slow_vehicle" depart="880.00">
        <route edges="-91 -14 10 17 41 66"/>
    </vehicle>
    <vehicle id="vehicle_90" type="slow_vehicle" depart="890.00">
        <route edges="-55 -9 5 17 39 -48"/>
    </vehicle>
    <vehicle id="vehicle_91" type="slow_vehicle" depart="900.00">
        <route edges="-3 9"/>
    </vehicle>
    <vehicle id="vehicle_92" type="slow_vehicle" depart="910.00">
        <route edges="-48 -21 -7 3 -3"/>
    </vehicle>
    <vehicle id="vehicle_93" type="slow_vehicle" depart="920.00">
        <route edges="132 -97 99"/>
    </vehicle>
    <vehicle id="vehicle_94" type="slow_vehicle" depart="930.00">
        <route edges="55 -55 -9 3 14"/>
    </vehicle>
    <vehicle id="vehicle_95" type="slow_vehicle" depart="940.00">
        <route edges="-97 97 -126"/>
    </vehicle>
    <vehicle id="vehicle_96" type="slow_vehicle" depart="950.00">
        <route edges="55 -55 57 -131 132 -97"/>
    </vehicle>
    <vehicle id="vehicle_97" type="slow_vehicle" depart="960.00">
        <route edges="48 -39 -17 -5 5"/>
    </vehicle>
    <vehicle id="vehicle_98" type="slow_vehicle" depart="970.00">
        <route edges="132 -97 -14 12"/>
    </vehicle>
    <vehicle id="vehicle_99" type="slow_vehicle" depart="980.00">
        <route edges="-103 -48 50 -50"/>
    </vehicle>
    <vehicle id="vehicle_100" type="slow_vehicle" depart="990.00">
        <route edges="5 17 39"/>
    </vehicle>
    <vehicle id="vehicle_101" type="slow_vehicle" depart="1000.00">
        <route edges="35 -35 -17 -10 14 99"/>
    </vehicle>
    <vehicle id="vehicle_102" type="slow_vehicle" depart="1010.00">
        <route edges="9 55 -19 21 50 -50"/>
    </vehicle>
    <vehicle id="vehicle_103" type="slow_vehicle" depart="1020.00">
        <route edges="5 -5 9 55 107"/>
    </vehicle>
    <vehicle id="vehicle_104" type="slow_vehicle" depart="1030.00">
        <route edges="-48 50 -78 86 121 -138"/>
    </vehicle>
    <vehicle id="vehicle_105" type="slow_vehicle" depart="1040.00">
        <route edges="-21 21 48 101"/>
    </vehicle>
    <vehicle id="vehicle_106" type="slow_vehicle" depart="1050.00">
        <route edges="21 48 -39 41"/>
    </vehicle>
    <vehicle id="vehicle_107" type="slow_vehicle" depart="1060.00">
        <route edges="131 -57 55 -19 21 47"/>
    </vehicle>
    <vehicle id="vehicle_108" type="slow_vehicle" depart="1070.00">
        <route edges="-5 5 17 39 -66 -41"/>
    </vehicle>
    <vehicle id="vehicle_109" type="slow_vehicle" depart="1080.00">
        <route edges="-138 -107 -55 -9 3 -3"/>
    </vehicle>
    <vehicle id="vehicle_110" type="slow_vehicle" depart="1090.00">
        <route edges="-12 -3 7 21 50 -78"/>
    </vehicle>
    <vehicle id="vehicle_111" type="slow_vehicle" depart="1100.00">
        <route edges="-132 131 -131"/>
    </vehicle>
    <vehicle id="vehicle_112" type="slow_vehicle" depart="1110.00">
        <route edges="-93 91 -57 55 107"/>
    </vehicle>
    <vehicle id="vehicle_113" type="slow_vehicle" depart="1120.00">
        <route edges="12 -15 17 35 -35"/>
    </vehicle>
    <vehicle id="vehicle_114" type="slow_vehicle" depart="1130.00">
        <route edges="117 -80 -25 -7 5 -10"/>
    </vehicle>
    <vehicle id="vehicle_115" type="slow_vehicle" depart="1140.00">
        <route edges="73 141 -141 -73 71 -78 80 -117"/>
    </vehicle>
    <vehicle id="vehicle_116" type="slow_vehicle" depart="1150.00">
        <route edges="132 -97 -14 -3 7 21 48"/>
    </vehicle>
    <vehicle id="vehicle_117" type="slow_vehicle" depart="1160.00">
        <route edges="-14 -3 7 21 47 73 141 -141 -73"/>
    </vehicle>
    <vehicle id="vehicle_118" type="slow_vehicle" depart="1170.00">
        <route edges="-131 131 -57 55 -19 21 47 71"/>
    </vehicle>
    <vehicle id="vehicle_119" type="slow_vehicle" depart="1180.00">
        <route edges="-101 -39 -17 -5 9 55"/>
    </vehicle>
    <vehicle id="vehicle_120" type="slow_vehicle" depart="1190.00">
        <route edges="-17 -10 14 93 126"/>
    </vehicle>
    <vehicle id="vehicle_121" type="slow_vehicle" depart="1200.00">
        <route edges="-80 78 -78"/>
    </vehicle>
    <vehicle id="vehicle_122" type="slow_vehicle" depart="1210.00">
        <route edges="47 -47 -21 19 -55 57 -131 131"/>
    </vehicle>
    <vehicle id="vehicle_123" type="slow_vehicle" depart="1220.00">
        <route edges="-126 -93 -14 -3 7 25 80"/>
    </vehicle>
    <vehicle id="vehicle_124" type="slow_vehicle" depart="1230.00">
        <route edges="9 55 107 138 -121 -86"/>
    </vehicle>
    <vehicle id="vehicle_125" type="slow_vehicle" depart="1240.00">
        <route edges="-103 -39 -17 -5 9 57 -131"/>
    </vehicle>
    <vehicle id="vehicle_126" type="slow_vehicle" depart="1250.00">
        <route edges="-7 7 25 86 121 -138 -107"/>
    </vehicle>
    <vehicle id="vehicle_127" type="slow_vehicle" depart="1260.00">
        <route edges="-132 132"/>
    </vehicle>
    <vehicle id="vehicle_128" type="slow_vehicle" depart="1270.00">
        <route edges="-15 17 35"/>
    </vehicle>
    <vehicle id="vehicle_129" type="slow_vehicle" depart="1280.00">
        <route edges="-80 86 -86"/>
    </vehicle>
    <vehicle id="vehicle_130" type="slow_vehicle" depart="1290.00">
        <route edges="-41 -17 -10 12"/>
    </vehicle>
    <vehicle id="vehicle_131" type="slow_vehicle" depart="1300.00">
        <route edges="-117 -86 -25 -7 3 14 93 126"/>
    </vehicle>
    <vehicle id="vehicle_132" type="slow_vehicle" depart="1310.00">
        <route edges="25 -25 -7 5 17"/>
    </vehicle>
    <vehicle id="vehicle_133" type="slow_vehicle" depart="1320.00">
        <route edges="35 -35 39"/>
    </vehicle>
    <vehicle id="vehicle_134" type="slow_vehicle" depart="1330.00">
        <route edges="48 -39 -17 -10 14 97"/>
    </vehicle>
    <vehicle id="vehicle_135" type="slow_vehicle" depart="1340.00">
        <route edges="15 -12 14 91 -131"/>
    </vehicle>
    <vehicle id="vehicle_136" type="slow_vehicle" depart="1350.00">
        <route edges="73 141"/>
    </vehicle>
    <vehicle id="vehicle_137" type="slow_vehicle" depart="1360.00">
        <route edges="-35 -17 -10 14 93"/>
    </vehicle>
    <vehicle id="vehicle_138" type="slow_vehicle" depart="1370.00">
        <route edges="-97 -14 -3 7 25 86 121 -138 -107"/>
    </vehicle>
    <vehicle id="vehicle_139" type="slow_vehicle" depart="1380.00">
        <route edges="91 -91 -14 10 17 41"/>
    </vehicle>
    <vehicle id="vehicle_140" type="slow_vehicle" depart="1390.00">
        <route edges="7 21 50 -71"/>
    </vehicle>
    <vehicle id="vehicle_141" type="slow_vehicle" depart="1400.00">
        <route edges="-101 -39 41"/>
    </vehicle>
    <vehicle id="vehicle_142" type="slow_vehicle" depart="1410.00">
        <route edges="-55 -9 5"/>
    </vehicle>
    <vehicle id="vehicle_143" type="slow_vehicle" depart="1420.00">
        <route edges="39 -48 -21 19"/>
    </vehicle>
    <vehicle id="vehicle_144" type="slow_vehicle" depart="1430.00">
        <route edges="132 -97 -14 10 17 39 101"/>
    </vehicle>
    <vehicle id="vehicle_145" type="slow_vehicle" depart="1440.00">
        <route edges="-19 -7 3 12"/>
    </vehicle>
    <vehicle id="vehicle_146" type="slow_vehicle" depart="1450.00">
        <route edges="132 -132 131 -57 -9"/>
    </vehicle>
    <vehicle id="vehicle_147" type="slow_vehicle" depart="1460.00">
        <route edges="-73 -47 -21 -7 3 14 97 -126"/>
    </vehicle>
    <vehicle id="vehicle_148" type="slow_vehicle" depart="1470.00">
        <route edges="48 -39 41 66"/>
    </vehicle>
    <vehicle id="vehicle_149" type="slow_vehicle" depart="1480.00">
        <route edges="-39 39 -48 -21"/>
    </vehicle>
    <vehicle id="vehicle_150" type="slow_vehicle" depart="1490.00">
        <route edges="-78 -25 -7 3 14 97 -126"/>
    </vehicle>
    <vehicle id="vehicle_151" type="slow_vehicle" depart="1500.00">
        <route edges="-50 -21 -7 3 14 99"/>
    </vehicle>
    <vehicle id="vehicle_152" type="slow_vehicle" depart="1510.00">
        <route edges="132 -132 131 -57 55 -19"/>
    </vehicle>
    <vehicle id="vehicle_153" type="slow_vehicle" depart="1520.00">
        <route edges="-121 -86"/>
    </vehicle>
    <vehicle id="vehicle_154" type="slow_vehicle" depart="1530.00">
        <route edges="-82 -25 -7 3 14 97"/>
    </vehicle>
    <vehicle id="vehicle_155" type="slow_vehicle" depart="1540.00">
        <route edges="41 66 -48 50 -78 86 117"/>
    </vehicle>
    <vehicle id="vehicle_156" type="slow_vehicle" depart="1550.00">
        <route edges="-21 25 78"/>
    </vehicle>
    <vehicle id="vehicle_157" type="slow_vehicle" depart="1560.00">
        <route edges="-141 -73 -47 -21 -7 3 12"/>
    </vehicle>
    <vehicle id="vehicle_158" type="slow_vehicle" depart="1570.00">
        <route edges="50 -50 -21 -7 3 14 97 -126"/>
    </vehicle>
    <vehicle id="vehicle_159" type="slow_vehicle" depart="1580.00">
        <route edges="-39 39 -66 -41"/>
    </vehicle>
    <vehicle id="vehicle_160" type="slow_vehicle" depart="1590.00">
        <route edges="50 -50 -21 -7 3 14 97"/>
    </vehicle>
    <vehicle id="vehicle_161" type="slow_vehicle" depart="1600.00">
        <route edges="41 66 -39 39"/>
    </vehicle>
    <vehicle id="vehicle_162" type="slow_vehicle" depart="1610.00">
        <route edges="-47 50 -78 82"/>
    </vehicle>
    <vehicle id="vehicle_163" type="slow_vehicle" depart="1620.00">
        <route edges="-35 -17 -10 10"/>
    </vehicle>
    <vehicle id="vehicle_164" type="slow_vehicle" depart="1630.00">
        <route edges="5 -10 14 97 -126 -93"/>
    </vehicle>
    <vehicle id="vehicle_165" type="slow_vehicle" depart="1640.00">
        <route edges="21 48 -39 35 -35"/>
    </vehicle>
    <vehicle id="vehicle_166" type="slow_vehicle" depart="1650.00">
        <route edges="-126 -93 -14 10 15"/>
    </vehicle>
    <vehicle id="vehicle_167" type="slow_vehicle" depart="1660.00">
        <route edges="-66 -41 39 -48 47 73 141 -141 -73"/>
    </vehicle>
    <vehicle id="vehicle_168" type="slow_vehicle" depart="1670.00">
        <route edges="-19 19 -55 -9"/>
    </vehicle>
    <vehicle id="vehicle_169" type="slow_vehicle" depart="1680.00">
        <route edges="-101 -48 47 73 141"/>
    </vehicle>
    <vehicle id="vehicle_170" type="slow_vehicle" depart="1690.00">
        <route edges="-3 5 17 39 -66 -41"/>
    </vehicle>
    <vehicle id="vehicle_171" type="slow_vehicle" depart="1700.00">
        <route edges="-7 5 17 41 66"/>
    </vehicle>
    <vehicle id="vehicle_172" type="slow_vehicle" depart="1710.00">
        <route edges="17 39 -66"/>
    </vehicle>
    <vehicle id="vehicle_173" type="slow_vehicle" depart="1720.00">
        <route edges="14 -14"/>
    </vehicle>
    <vehicle id="vehicle_174" type="slow_vehicle" depart="1730.00">
        <route edges="10 -10 14"/>
    </vehicle>
    <vehicle id="vehicle_175" type="slow_vehicle" depart="1740.00">
        <route edges="-80 -25 19"/>
    </vehicle>
    <vehicle id="vehicle_176" type="slow_vehicle" depart="1750.00">
        <route edges="-35 -17 -10 -3"/>
    </vehicle>
    <vehicle id="vehicle_177" type="slow_vehicle" depart="1760.00">
        <route edges="-47 47 73 141"/>
    </vehicle>
    <vehicle id="vehicle_178" type="slow_vehicle" depart="1770.00">
        <route edges="-97 -14 -3 7 21 50 -78"/>
    </vehicle>
    <vehicle id="vehicle_179" type="slow_vehicle" depart="1780.00">
        <route edges="39 -48 50 -78 78"/>
    </vehicle>
    <vehicle id="vehicle_180" type="slow_vehicle" depart="1790.00">
        <route edges="-15 17 39 -48 50"/>
    </vehicle>
    <vehicle id="vehicle_181" type="slow_vehicle" depart="1800.00">
        <route edges="99 -99 -14 10 15 -12"/>
    </vehicle>
    <vehicle id="vehicle_182" type="slow_vehicle" depart="1810.00">
        <route edges="-39 39 -48 47 -47"/>
    </vehicle>
    <vehicle id="vehicle_183" type="slow_vehicle" depart="1820.00">
        <route edges="19 -55 57 -91 99"/>
    </vehicle>
    <vehicle id="vehicle_184" type="slow_vehicle" depart="1830.00">
        <route edges="141 -141 -73 -47 -21 -7 3 14 97 -132"/>
    </vehicle>
    <vehicle id="vehicle_185" type="slow_vehicle" depart="1840.00">
        <route edges="-66 -41 -17 -10"/>
    </vehicle>
    <vehicle id="vehicle_186" type="slow_vehicle" depart="1850.00">
        <route edges="-131 131 -57 55 107 138 -121 119 -119"/>
    </vehicle>
    <vehicle id="vehicle_187" type="slow_vehicle" depart="1860.00">
        <route edges="91 -57 55 -19 21 50 -78"/>
    </vehicle>
    <vehicle id="vehicle_188" type="slow_vehicle" depart="1870.00">
        <route edges="39 -39 -17 -5"/>
    </vehicle>
    <vehicle id="vehicle_189" type="slow_vehicle" depart="1880.00">
        <route edges="132 -97 -14 -3 3"/>
    </vehicle>
    <vehicle id="vehicle_190" type="slow_vehicle" depart="1890.00">
        <route edges="-47 48 -39 -17 15"/>
    </vehicle>
    <vehicle id="vehicle_191" type="slow_vehicle" depart="1900.00">
        <route edges="25 86 119 -119"/>
    </vehicle>
    <vehicle id="vehicle_192" type="slow_vehicle" depart="1910.00">
        <route edges="138 -121 121 -138 -107 -55 57 -131 132"/>
    </vehicle>
    <vehicle id="vehicle_193" type="slow_vehicle" depart="1920.00">
        <route edges="99 131 -57 55 107 138 -121 117"/>
    </vehicle>
    <vehicle id="vehicle_194" type="slow_vehicle" depart="1930.00">
        <route edges="138 -121 121 -138"/>
    </vehicle>
    <vehicle id="vehicle_195" type="slow_vehicle" depart="1940.00">
        <route edges="-3 7 25 86"/>
    </vehicle>
    <vehicle id="vehicle_196" type="slow_vehicle" depart="1950.00">
        <route edges="119 -119 -86 -25 -7 3 14"/>
    </vehicle>
    <vehicle id="vehicle_197" type="slow_vehicle" depart="1960.00">
        <route edges="5 17 39 -48 50 -50"/>
    </vehicle>
    <vehicle id="vehicle_198" type="slow_vehicle" depart="1970.00">
        <route edges="-78 -25 -7 3 14 93"/>
    </vehicle>
    <vehicle id="vehicle_199" type="slow_vehicle" depart="1980.00">
        <route edges="7 21 47 73 141 -141"/>
    </vehicle>
    <vehicle id="vehicle_200" type="slow_vehicle" depart="1990.00">
        <route edges="99 131 -57 55 107 138 -121 117 -80"/>
    </vehicle>
    <vehicle id="vehicle_201" type="slow_vehicle" depart="2000.00">
        <route edges="101 -101 -48 -21 19 -55"/>
    </vehicle>
    <vehicle id="vehicle_202" type="slow_vehicle" depart="2010.00">
        <route edges="-107 -55 -9 5 17 -17"/>
    </vehicle>
    <vehicle id="vehicle_203" type="slow_vehicle" depart="2020.00">
        <route edges="82 -82 78 -50 48 101"/>
    </vehicle>
    <vehicle id="vehicle_204" type="slow_vehicle" depart="2030.00">
        <route edges="12 -15 17 39 -48 -21"/>
    </vehicle>
    <vehicle id="vehicle_205" type="slow_vehicle" depart="2040.00">
        <route edges="141 -141 -73 71 -78 86 121"/>
    </vehicle>
    <vehicle id="vehicle_206" type="slow_vehicle" depart="2050.00">
        <route edges="-47 48 -39 35 -35"/>
    </vehicle>
    <vehicle id="vehicle_207" type="slow_vehicle" depart="2060.00">
        <route edges="-15 -10"/>
    </vehicle>
    <vehicle id="vehicle_208" type="slow_vehicle" depart="2070.00">
        <route edges="-117 -86 78 -50 48 103 -103"/>
    </vehicle>
    <vehicle id="vehicle_209" type="slow_vehicle" depart="2080.00">
        <route edges="99 131 -57 55 -19 25 80"/>
    </vehicle>
    <vehicle id="vehicle_210" type="slow_vehicle" depart="2090.00">
        <route edges="-82 86 119"/>
    </vehicle>
    <vehicle id="vehicle_211" type="slow_vehicle" depart="2100.00">
        <route edges="103 -103 -39 -17 -10 14 99"/>
    </vehicle>
    <vehicle id="vehicle_212" type="slow_vehicle" depart="2110.00">
        <route edges="-66 -41 -17 -5 3"/>
    </vehicle>
    <vehicle id="vehicle_213" type="slow_vehicle" depart="2120.00">
        <route edges="121 -138 -107 -19 21 47 73 141"/>
    </vehicle>
    <vehicle id="vehicle_214" type="slow_vehicle" depart="2130.00">
        <route edges="-14 -3 7 25 86"/>
    </vehicle>
    <vehicle id="vehicle_215" type="slow_vehicle" depart="2140.00">
        <route edges="-119 -86"/>
    </vehicle>
    <vehicle id="vehicle_216" type="slow_vehicle" depart="2150.00">
        <route edges="-73 71 -78 86 119 -119"/>
    </vehicle>
    <vehicle id="vehicle_217" type="slow_vehicle" depart="2160.00">
        <route edges="107 138 -121 -86 78 -50 48 103"/>
    </vehicle>
    <vehicle id="vehicle_218" type="slow_vehicle" depart="2170.00">
        <route edges="73 141 -141 -73 -47 -21 -7 3 14 93 126"/>
    </vehicle>
    <vehicle id="vehicle_219" type="slow_vehicle" depart="2180.00">
        <route edges="-25 21 48 -66"/>
    </vehicle>
    <vehicle id="vehicle_220" type="slow_vehicle" depart="2190.00">
        <route edges="-138 -107 -55 -9 5 17"/>
    </vehicle>
    <vehicle id="vehicle_221" type="slow_vehicle" depart="2200.00">
        <route edges="-78 -25 19 -19"/>
    </vehicle>
    <vehicle id="vehicle_222" type="slow_vehicle" depart="2210.00">
        <route edges="-57 55 -19 21 47 73 141 -141"/>
    </vehicle>
    <vehicle id="vehicle_223" type="slow_vehicle" depart="2220.00">
        <route edges="-73 -47 48 -39 -17"/>
    </vehicle>
    <vehicle id="vehicle_224" type="slow_vehicle" depart="2230.00">
        <route edges="-47 -21 19 107 138"/>
    </vehicle>
    <vehicle id="vehicle_225" type="slow_vehicle" depart="2240.00">
        <route edges="-101 -48 -21"/>
    </vehicle>
    <vehicle id="vehicle_226" type="slow_vehicle" depart="2250.00">
        <route edges="126 -132 -99"/>
    </vehicle>
    <vehicle id="vehicle_227" type="slow_vehicle" depart="2260.00">
        <route edges="-9 7 25 86 117"/>
    </vehicle>
    <vehicle id="vehicle_228" type="slow_vehicle" depart="2270.00">
        <route edges="131 -91 99"/>
    </vehicle>
    <vehicle id="vehicle_229" type="slow_vehicle" depart="2280.00">
        <route edges="3 14 -14"/>
    </vehicle>
    <vehicle id="vehicle_230" type="slow_vehicle" depart="2290.00">
        <route edges="10 17"/>
    </vehicle>
    <vehicle id="vehicle_231" type="slow_vehicle" depart="2300.00">
        <route edges="117 -80 78 -71 71"/>
    </vehicle>
    <vehicle id="vehicle_232" type="slow_vehicle" depart="2310.00">
        <route edges="48 -39 -17 -5"/>
    </vehicle>