<?xml version="1.0" ?>
<additional>
  <e2Detector id="sensor_0" lane="-10_0" pos="0.0" endPos="589.55" freq="300" file="sensor_output.xml" friendlyPos="true" export="CSV"/>
  <e2Detector id="sensor_1" lane="-10_1" pos="0.0" endPos="589.55" freq="300" file="sensor_output.xml" friendlyPos="true" export="CSV"/>
  <e2Detector id="sensor_2" lane="-10_2" pos="0.0" endPos="589.55" freq="300" file="sensor_output.xml" friendlyPos="true" export="CSV"/>
  <e2Detector id="sensor_3" lane="-101_0" pos="0.0" endPos="896.11" freq="300" file="sensor_output.xml" friendlyPos="true" export="CSV"/>
  <e2Detector id="sensor_4" lane="-101_1" pos="0.0" endPos="896.11" freq="300" file="sensor_output.xml" friendlyPos="true" export="CSV"/>
  <e2Detector id="sensor_5" lane="-101_2" pos="0.0" endPos="896.11" freq="300" file="sensor_output.xml" friendlyPos="true" export="CSV"/>
  <e2Detector id="sensor_6" lane="-103_0" pos="0.0" endPos="392.32" freq="300" file="sensor_output.xml" friendlyPos="true" export="CSV"/>
  <e2Detector id="sensor_7" lane="-103_1" pos="0.0" endPos="392.32" freq="300" file="sensor_output.xml" friendlyPos="true" export="CSV"/>
  <e2Detector id="sensor_8" lane="-103_2" pos="0.0" endPos="392.32" freq="300" file="sensor_output.xml" friendlyPos="true" export="CSV"/>
  <e2Detector id="sensor_9" lane="-107_0" pos="0.0" endPos="711.27" freq="300" file="sensor_output.xml" friendlyPos="true" export="CSV"/>
  <e2Detector id="sensor_10" lane="-107_1" pos="0.0" endPos="711.27" freq="300" file="sensor_output.xml" friendlyPos="true" export="CSV"/>
  <e2Detector id="sensor_11" lane="-107_2" pos="0.0" endPos="711.27" freq="300" file="sensor_output.xml" friendlyPos="true" export="CSV"/>
  <e2Detector id="sensor_12" lane="-117_0" pos="0.0" endPos="656.44" freq="300" file="sensor_output.xml" friendlyPos="true" export="CSV"/>
  <e2Detector id="sensor_13" lane="-117_1" pos="0.0" endPos="656.44" freq="300" file="sensor_output.xml" friendlyPos="true" export="CSV"/>
  <e2Detector id="sensor_14" lane="-117_2" pos="0.0" endPos="656.44" freq="300" file="sensor_output.xml" friendlyPos="true" export="CSV"/>
  <e2Detector id="sensor_15" lane="-119_0" pos="0.0" endPos="421.28" freq="300" file="sensor_output.xml" friendlyPos="true" export="CSV"/>
  <e2Detector id="sensor_16" lane="-119_1" pos="0.0" endPos="421.28" freq="300" file="sensor_output.xml" friendlyPos="true" export="CSV"/>
  <e2Detector id="sensor_17" lane="-119_2" pos="0.0" endPos="421.28" freq="300" file="sensor_output.xml" friendlyPos="true" export="CSV"/>
  <e2Detector id="sensor_18" lane="-12_0" pos="0.0" endPos="580.97" freq="300" file="sensor_output.xml" friendlyPos="true" export="CSV"/>
  <e2Detector id="sensor_19" lane="-12_1" pos="0.0" endPos="580.97" freq="300" file="sensor_output.xml" friendlyPos="true" export="CSV"/>
  <e2Detector id="sensor_20" lane="-12_2" pos="0.0" endPos="580.97" freq="300" file="sensor_output.xml" friendlyPos="true" export="CSV"/>
  <e2Detector id="sensor_21" lane="-121_0" pos="0.0" endPos="510.2" freq="300" file="sensor_output.xml" friendlyPos="true" export="CSV"/>
  <e2Detector id="sensor_22" lane="-121_1" pos="0.0" endPos="510.2" freq="300" file="sensor_output.xml" friendlyPos="true" export="CSV"/>
  <e2Detector id="sensor_23" lane="-121_2" pos="0.0" endPos="510.2" freq="300" file="sensor_output.xml" friendlyPos="true" export="CSV"/>
  <e2Detector id="sensor_24" lane="-126_0" pos="0.0" endPos="547.94" freq="300" file="sensor_output.xml" friendlyPos="true" export="CSV"/>
  <e2Detector id="sensor_25" lane="-126_1" pos="0.0" endPos="547.94" freq="300" file="sensor_output.xml" friendlyPos="true" export="CSV"/>
  <e2Detector id="sensor_26" lane="-126_2" pos="0.0" endPos="547.94" freq="300" file="sensor_output.xml" friendlyPos="true" export="CSV"/>
  <e2Detector id="sensor_27" lane="-131_0" pos="0.0" endPos="666.82" freq="300" file="sensor_output.xml" friendlyPos="true" export="CSV"/>
  <e2Detector id="sensor_28" lane="-131_1" pos="0.0" endPos="666.82" freq="300" file="sensor_output.xml" friendlyPos="true" export="CSV"/>
  <e2Detector id="sensor_29" lane="-131_2" pos="0.0" endPos="666.82" freq="300" file="sensor_output.xml" friendlyPos="true" export="CSV"/>
  <e2Detector id="sensor_30" lane="-132_0" pos="0.0" endPos="775.46" freq="300" file="sensor_output.xml" friendlyPos="true" export="CSV"/>
  <e2Detector id="sensor_31" lane="-132_1" pos="0.0" endPos="775.46" freq="300" file="sensor_output.xml" friendlyPos="true" export="CSV"/>
  <e2Detector id="sensor_32" lane="-132_2" pos="0.0" endPos="775.46" freq="300" file="sensor_output.xml" friendlyPos="true" export="CSV"/>
  <e2Detector id="sensor_33" lane="-138_0" pos="0.0" endPos="736.03" freq="300" file="sensor_output.xml" friendlyPos="true" export="CSV"/>
  <e2Detector id="sensor_34" lane="-138_1" pos="0.0" endPos="736.03" freq="300" file="sensor_output.xml" friendlyPos="true" export="CSV"/>
  <e2Detector id="sensor_35" lane="-138_2" pos="0.0" endPos="736.03" freq="300" file="sensor_output.xml" friendlyPos="true" export="CSV"/>
  <e2Detector id="sensor_36" lane="-14_0" pos="0.0" endPos="316.82" freq="300" file="sensor_output.xml" friendlyPos="true" export="CSV"/>
  <e2Detector id="sensor_37" lane="-14_1" pos="0.0" endPos="316.82" freq="300" file="sensor_output.xml" friendlyPos="true" export="CSV"/>
  <e2Detector id="sensor_38" lane="-14_2" pos="0.0" endPos="316.82" freq="300" file="sensor_output.xml" friendlyPos="true" export="CSV"/>
  <e2Detector id="sensor_39" lane="-141_0" pos="0.0" endPos="348.09" freq="300" file="sensor_output.xml" friendlyPos="true" export="CSV"/>
  <e2Detector id="sensor_40" lane="-141_1" pos="0.0" endPos="348.09" freq="300" file="sensor_output.xml" friendlyPos="true" export="CSV"/>
  <e2Detector id="sensor_41" lane="-141_2" pos="0.0" endPos="348.09" freq="300" file="sensor_output.xml" friendlyPos="true" export="CSV"/>
  <e2Detector id="sensor_42" lane="-15_0" pos="0.0" endPos="789.73" freq="300" file="sensor_output.xml" friendlyPos="true" export="CSV"/>
  <e2Detector id="sensor_43" lane="-15_1" pos="0.0" endPos="789.73" freq="300" file="sensor_output.xml" friendlyPos="true" export="CSV"/>
  <e2Detector id="sensor_44" lane="-15_2" pos="0.0" endPos="789.73" freq="300" file="sensor_output.xml" friendlyPos="true" export="CSV"/>
  <e2Detector id="sensor_45" lane="-17_0" pos="0.0" endPos="292.29" freq="300" file="sensor_output.xml" friendlyPos="true" export="CSV"/>
  <e2Detector id="sensor_46" lane="-17_1" pos="0.0" endPos="292.29" freq="300" file="sensor_output.xml" friendlyPos="true" export="CSV"/>
  <e2Detector id="sensor_47" lane="-17_2" pos="0.0" endPos="292.29" freq="300" file="sensor_output.xml" friendlyPos="true" export="CSV"/>
  <e2Detector id="sensor_48" lane="-19_0" pos="0.0" endPos="716.46" freq="300" file="sensor_output.xml" friendlyPos="true" export="CSV"/>
  <e2Detector id="sensor_49" lane="-19_1" pos="0.0" endPos="716.46" freq="300" file="sensor_output.xml" friendlyPos="true" export="CSV"/>
  <e2Detector id="sensor_50" lane="-19_2" pos="0.0" endPos="716.46" freq="300" file="sensor_output.xml" friendlyPos="true" export="CSV"/>
  <e2Detector id="sensor_51" lane="-21_0" pos="0.0" endPos="888.77" freq="300" file="sensor_output.xml" friendlyPos="true" export="CSV"/>
  <e2Detector id="sensor_52" lane="-21_1" pos="0.0" endPos="888.77" freq="300" file="sensor_output.xml" friendlyPos="true" export="CSV"/>
  <e2Detector id="sensor_53" lane="-21_2" pos="0.0" endPos="888.77" freq="300" file="sensor_output.xml" friendlyPos="true" export="CSV"/>
  <e2Detector id="sensor_54" lane="-25_0" pos="0.0" endPos="801.2" freq="300" file="sensor_output.xml" friendlyPos="true" export="CSV"/>
  <e2Detector id="sensor_55" lane="-25_1" pos="0.0" endPos="801.2" freq="300" file="sensor_output.xml" friendlyPos="true" export="CSV"/>
  <e2Detector id="sensor_56" lane="-25_2" pos="0.0" endPos="801.2" freq="300" file="sensor_output.xml" friendlyPos="true" export="CSV"/>
  <e2Detector id="sensor_57" lane="-3_0" pos="0.0" endPos="868.36" freq="300" file="sensor_output.xml" friendlyPos="true" export="CSV"/>
  <e2Detector id="sensor_58" lane="-3_1" pos="0.0" endPos="868.36" freq="300" file="sensor_output.xml" friendlyPos="true" export="CSV"/>
  <e2Detector id="sensor_59" lane="-3_2" pos="0.0" endPos="868.36" freq="300" file="sensor_output.xml" friendlyPos="true" export="CSV"/>
  <e2Detector id="sensor_60" lane="-35_0" pos="0.0" endPos="353.23" freq="300" file="sensor_output.xml" friendlyPos="true" export="CSV"/>
  <e2Detector id="sensor_61" lane="-35_1" pos="0.0" endPos="353.23" freq="300" file="sensor_output.xml" friendlyPos="true" export="CSV"/>
  <e2Detector id="sensor_62" lane="-35_2" pos="0.0" endPos="353.23" freq="300" file="sensor_output.xml" friendlyPos="true" export="CSV"/>
  <e2Detector id="sensor_63" lane="-39_0" pos="0.0" endPos="920.95" freq="300" file="sensor_output.xml" friendlyPos="true" export="CSV"/>
  <e2Detector id="sensor_64" lane="-39_1" pos="0.0" endPos="920.95" freq="300" file="sensor_output.xml" friendlyPos="true" export="CSV"/>
  <e2Detector id="sensor_65" lane="-39_2" pos="0.0" endPos="920.95" freq="300" file="sensor_output.xml" friendlyPos="true" export="CSV"/>
  <e2Detector id="sensor_66" lane="-41_0" pos="0.0" endPos="670.81" freq="300" file="sensor_output.xml" friendlyPos="true" export="CSV"/>
  <e2Detector id="sensor_67" lane="-41_1" pos="0.0" endPos="670.81" freq="300" file="sensor_output.xml" friendlyPos="true" export="CSV"/>
  <e2Detector id="sensor_68" lane="-41_2" pos="0.0" endPos="670.81" freq="300" file="sensor_output.xml" friendlyPos="true" export="CSV"/>
  <e2Detector id="sensor_69" lane="-47_0" pos="0.0" endPos="301.23" freq="300" file="sensor_output.xml" friendlyPos="true" export="CSV"/>
  <e2Detector id="sensor_70" lane="-47_1" pos="0.0" endPos="301.23" freq="300" file="sensor_output.xml" friendlyPos="true" export="CSV"/>
  <e2Detector id="sensor_71" lane="-47_2" pos="0.0" endPos="301.23" freq="300" file="sensor_output.xml" friendlyPos="true" export="CSV"/>
  <e2Detector id="sensor_72" lane="-48_0" pos="0.0" endPos="944.44" freq="300" file="sensor_output.xml" friendlyPos="true" export="CSV"/>
  <e2Detector id="sensor_73" lane="-48_1" pos="0.0" endPos="944.44" freq="300" file="sensor_output.xml" friendlyPos="true" export="CSV"/>
  <e2Detector id="sensor_74" lane="-48_2" pos="0.0" endPos="944.44" freq="300" file="sensor_output.xml" friendlyPos="true" export="CSV"/>
  <e2Detector id="sensor_75" lane="-5_0" pos="0.0" endPos="603.0" freq="300" file="sensor_output.xml" friendlyPos="true" export="CSV"/>
  <e2Detector id="sensor_76" lane="-5_1" pos="0.0" endPos="603.0" freq="300" file="sensor_output.xml" friendlyPos="true" export="CSV"/>
  <e2Detector id="sensor_77" lane="-5_2" pos="0.0" endPos="603.0" freq="300" file="sensor_output.xml" friendlyPos="true" export="CSV"/>
  <e2Detector id="sensor_78" lane="-50_0" pos="0.0" endPos="469.22" freq="300" file="sensor_output.xml" friendlyPos="true" export="CSV"/>
  <e2Detector id="sensor_79" lane="-50_1" pos="0.0" endPos="469.22" freq="300" file="sensor_output.xml" friendlyPos="true" export="CSV"/>
  <e2Detector id="sensor_80" lane="-50_2" pos="0.0" endPos="469.22" freq="300" file="sensor_output.xml" friendlyPos="true" export="CSV"/>
  <e2Detector id="sensor_81" lane="-55_0" pos="0.0" endPos="483.39" freq="300" file="sensor_output.xml" friendlyPos="true" export="CSV"/>
  <e2Detector id="sensor_82" lane="-55_1" pos="0.0" endPos="483.39" freq="300" file="sensor_output.xml" friendlyPos="true" export="CSV"/>
  <e2Detector id="sensor_83" lane="-55_2" pos="0.0" endPos="483.39" freq="300" file="sensor_output.xml" friendlyPos="true" export="CSV"/>
  <e2Detector id="sensor_84" lane="-57_0" pos="0.0" endPos="421.94" freq="300" file="sensor_output.xml" friendlyPos="true" export="CSV"/>
  <e2Detector id="sensor_85" lane="-57_1" pos="0.0" endPos="421.94" freq="300" file="sensor_output.xml" friendlyPos="true" export="CSV"/>
  <e2Detector id="sensor_86" lane="-57_2" pos="0.0" endPos="421.94" freq="300" file="sensor_output.xml" friendlyPos="true" export="CSV"/>
  <e2Detector id="sensor_87" lane="-66_0" pos="0.0" endPos="713.95" freq="300" file="sensor_output.xml" friendlyPos="true" export="CSV"/>
  <e2Detector id="sensor_88" lane="-66_1" pos="0.0" endPos="713.95" freq="300" file="sensor_output.xml" friendlyPos="true" export="CSV"/>
  <e2Detector id="sensor_89" lane="-66_2" pos="0.0" endPos="713.95" freq="300" file="sensor_output.xml" friendlyPos="true" export="CSV"/>
  <e2Detector id="sensor_90" lane="-7_0" pos="0.0" endPos="788.17" freq="300" file="sensor_output.xml" friendlyPos="true" export="CSV"/>
  <e2Detector id="sensor_91" lane="-7_1" pos="0.0" endPos="788.17" freq="300" file="sensor_output.xml" friendlyPos="true" export="CSV"/>
  <e2Detector id="sensor_92" lane="-7_2" pos="0.0" endPos="788.17" freq="300" file="sensor_output.xml" friendlyPos="true" export="CSV"/>
  <e2Detector id="sensor_93" lane="-71_0" pos="0.0" endPos="271.27" freq="300" file="sensor_output.xml" friendlyPos="true" export="CSV"/>
  <e2Detector id="sensor_94" lane="-71_1" pos="0.0" endPos="271.27" freq="300" file="sensor_output.xml" friendlyPos="true" export="CSV"/>
  <e2Detector id="sensor_95" lane="-71_2" pos="0.0" endPos="271.27" freq="300" file="sensor_output.xml" friendlyPos="true" export="CSV"/>
  <e2Detector id="sensor_96" lane="-73_0" pos="0.0" endPos="959.75" freq="300" file="sensor_output.xml" friendlyPos="true" export="CSV"/>
  <e2Detector id="sensor_97" lane="-73_1" pos="0.0" endPos="959.75" freq="300" file="sensor_output.xml" friendlyPos="true" export="CSV"/>
  <e2Detector id="sensor_98" lane="-73_2" pos="0.0" endPos="959.75" freq="300" file="sensor_output.xml" friendlyPos="true" export="CSV"/>
  <e2Detector id="sensor_99" lane="-78_0" pos="0.0" endPos="710.12" freq="300" file="sensor_output.xml" friendlyPos="true" export="CSV"/>
  <e2Detector id="sensor_100" lane="-78_1" pos="0.0" endPos="710.12" freq="300" file="sensor_output.xml" friendlyPos="true" export="CSV"/>
  <e2Detector id="sensor_101" lane="-78_2" pos="0.0" endPos="710.12" freq="300" file="sensor_output.xml" friendlyPos="true" export="CSV"/>
  <e2Detector id="sensor_102" lane="-80_0" pos="0.0" endPos="759.08" freq="300" file="sensor_output.xml" friendlyPos="true" export="CSV"/>
  <e2Detector id="sensor_103" lane="-80_1" pos="0.0" endPos="759.08" freq="300" file="sensor_output.xml" friendlyPos="true" export="CSV"/>
  <e2Detector id="sensor_104" lane="-80_2" pos="0.0" endPos="759.08" freq="300" file="sensor_output.xml" friendlyPos="true" export="CSV"/>
  <e2Detector id="sensor_105" lane="-82_0" pos="0.0" endPos="364.02" freq="300" file="sensor_output.xml" friendlyPos="true" export="CSV"/>
  <e2Detector id="sensor_106" lane="-82_1" pos="0.0" endPos="364.02" freq="300" file="sensor_output.xml" friendlyPos="true" export="CSV"/>
  <e2Detector id="sensor_107" lane="-82_2" pos="0.0" endPos="364.02" freq="300" file="sensor_output.xml" friendlyPos="true" export="CSV"/>
  <e2Detector id="sensor_108" lane="-86_0" pos="0.0" endPos="719.05" freq="300" file="sensor_output.xml" friendlyPos="true" export="CSV"/>
  <e2Detector id="sensor_109" lane="-86_1" pos="0.0" endPos="719.05" freq="300" file="sensor_output.xml" friendlyPos="true" export="CSV"/>
  <e2Detector id="sensor_110" lane="-86_2" pos="0.0" endPos="719.05" freq="300" file="sensor_output.xml" friendlyPos="true" export="CSV"/>
  <e2Detector id="sensor_111" lane="-9_0" pos="0.0" endPos="787.53" freq="300" file="sensor_output.xml" friendlyPos="true" export="CSV"/>
  <e2Detector id="sensor_112" lane="-9_1" pos="0.0" endPos="787.53" freq="300" file="sensor_output.xml" friendlyPos="true" export="CSV"/>
  <e2Detector id="sensor_113" lane="-9_2" pos="0.0" endPos="787.53" freq="300" file="sensor_output.xml" friendlyPos="true" export="CSV"/>
  <e2Detector id="sensor_114" lane="-91_0" pos="0.0" endPos="919.1" freq="300" file="sensor_output.xml" friendlyPos="true" export="CSV"/>
  <e2Detector id="sensor_115" lane="-91_1" pos="0.0" endPos="919.1" freq="300" file="sensor_output.xml" friendlyPos="true" export="CSV"/>
  <e2Detector id="sensor_116" lane="-91_2" pos="0.0" endPos="919.1" freq="300" file="sensor_output.xml" friendlyPos="true" export="CSV"/>
  <e2Detector id="sensor_117" lane="-93_0" pos="0.0" endPos="530.06" freq="300" file="sensor_output.xml" friendlyPos="true" export="CSV"/>
  <e2Detector id="sensor_118" lane="-93_1" pos="0.0" endPos="530.06" freq="300" file="sensor_output.xml" friendlyPos="true" export="CSV"/>
  <e2Detector id="sensor_119" lane="-93_2" pos="0.0" endPos="530.06" freq="300" file="sensor_output.xml" friendlyPos="true" export="CSV"/>
  <e2Detector id="sensor_120" lane="-97_0" pos="0.0" endPos="699.01" freq="300" file="sensor_output.xml" friendlyPos="true" export="CSV"/>
  <e2Detector id="sensor_121" lane="-97_1" pos="0.0" endPos="699.01" freq="300" file="sensor_output.xml" friendlyPos="true" export="CSV"/>
  <e2Detector id="sensor_122" lane="-97_2" pos="0.0" endPos="699.01" freq="300" file="sensor_output.xml" friendlyPos="true" export="CSV"/>
  <e2Detector id="sensor_123" lane="-99_0" pos="0.0" endPos="637.21" freq="300" file="sensor_output.xml" friendlyPos="true" export="CSV"/>
  <e2Detector id="sensor_124" lane="-99_1" pos="0.0" endPos="637.21" freq="300" file="sensor_output.xml" friendlyPos="true" export="CSV"/>
  <e2Detector id="sensor_125" lane="-99_2" pos="0.0" endPos="637.21" freq="300" file="sensor_output.xml" friendlyPos="true" export="CSV"/>
  <e2Detector id="sensor_126" lane="10_0" pos="0.0" endPos="589.55" freq="300" file="sensor_output.xml" friendlyPos="true" export="CSV"/>
  <e2Detector id="sensor_127" lane="10_1" pos="0.0" endPos="589.55" freq="300" file="sensor_output.xml" friendlyPos="true" export="CSV"/>
  <e2Detector id="sensor_128" lane="10_2" pos="0.0" endPos="589.55" freq="300" file="sensor_output.xml" friendlyPos="true" export="CSV"/>
  <e2Detector id="sensor_129" lane="101_0" pos="0.0" endPos="896.11" freq="300" file="sensor_output.xml" friendlyPos="true" export="CSV"/>
  <e2Detector id="sensor_130" lane="101_1" pos="0.0" endPos="896.11" freq="300" file="sensor_output.xml" friendlyPos="true" export="CSV"/>
  <e2Detector id="sensor_131" lane="101_2" pos="0.0" endPos="896.11" freq="300" file="sensor_output.xml" friendlyPos="true" export="CSV"/>
  <e2Detector id="sensor_132" lane="103_0" pos="0.0" endPos="392.32" freq="300" file="sensor_output.xml" friendlyPos="true" export="CSV"/>
  <e2Detector id="sensor_133" lane="103_1" pos="0.0" endPos="392.32" freq="300" file="sensor_output.xml" friendlyPos="true" export="CSV"/>
  <e2Detector id="sensor_134" lane="103_2" pos="0.0" endPos="392.32" freq="300" file="sensor_output.xml" friendlyPos="true" export="CSV"/>
  <e2Detector id="sensor_135" lane="107_0" pos="0.0" endPos="711.27" freq="300" file="sensor_output.xml" friendlyPos="true" export="CSV"/>
  <e2Detector id="sensor_136" lane="107_1" pos="0.0" endPos="711.27" freq="300" file="sensor_output.xml" friendlyPos="true" export="CSV"/>
  <e2Detector id="sensor_137" lane="107_2" pos="0.0" endPos="711.27" freq="300" file="sensor_output.xml" friendlyPos="true" export="CSV"/>
  <e2Detector id="sensor_138" lane="117_0" pos="0.0" endPos="656.44" freq="300" file="sensor_output.xml" friendlyPos="true" export="CSV"/>
  <e2Detector id="sensor_139" lane="117_1" pos="0.0" endPos="656.44" freq="300" file="sensor_output.xml" friendlyPos="true" export="CSV"/>
  <e2Detector id="sensor_140" lane="117_2" pos="0.0" endPos="656.44" freq="300" file="sensor_output.xml" friendlyPos="true" export="CSV"/>
  <e2Detector id="sensor_141" lane="119_0" pos="0.0" endPos="421.28" freq="300" file="sensor_output.xml" friendlyPos="true" export="CSV"/>
  <e2Detector id="sensor_142" lane="119_1" pos="0.0" endPos="421.28" freq="300" file="sensor_output.xml" friendlyPos="true" export="CSV"/>
  <e2Detector id="sensor_143" lane="119_2" pos="0.0" endPos="421.28" freq="300" file="sensor_output.xml" friendlyPos="true" export="CSV"/>
  <e2Detector id="sensor_144" lane="12_0" pos="0.0" endPos="580.97" freq="300" file="sensor_output.xml" friendlyPos="true" export="CSV"/>
  <e2Detector id="sensor_145" lane="12_1" pos="0.0" endPos="580.97" freq="300" file="sensor_output.xml" friendlyPos="true" export="CSV"/>
  <e2Detector id="sensor_146" lane="12_2" pos="0.0" endPos="580.97" freq="300" file="sensor_output.xml" friendlyPos="true" export="CSV"/>
  <e2Detector id="sensor_147" lane="121_0" pos="0.0" endPos="510.2" freq="300" file="sensor_output.xml" friendlyPos="true" export="CSV"/>
  <e2Detector id="sensor_148" lane="121_1" pos="0.0" endPos="510.2" freq="300" file="sensor_output.xml" friendlyPos="true" export="CSV"/>
  <e2Detector id="sensor_149" lane="121_2" pos="0.0" endPos="510.2" freq="300" file="sensor_output.xml" friendlyPos="true" export="CSV"/>
  <e2Detector id="sensor_150" lane="126_0" pos="0.0" endPos="547.94" freq="300" file="sensor_output.xml" friendlyPos="true" export="CSV"/>
  <e2Detector id="sensor_151" lane="126_1" pos="0.0" endPos="547.94" freq="300" file="sensor_output.xml" friendlyPos="true" export="CSV"/>
  <e2Detector id="sensor_152" lane="126_2" pos="0.0" endPos="547.94" freq="300" file="sensor_output.xml" friendlyPos="true" export="CSV"/>
  <e2Detector id="sensor_153" lane="131_0" pos="0.0" endPos="666.82" freq="300" file="sensor_output.xml" friendlyPos="true" export="CSV"/>
  <e2Detector id="sensor_154" lane="131_1" pos="0.0" endPos="666.82" freq="300" file="sensor_output.xml" friendlyPos="true" export="CSV"/>
  <e2Detector id="sensor_155" lane="131_2" pos="0.0" endPos="666.82" freq="300" file="sensor_output.xml" friendlyPos="true" export="CSV"/>
  <e2Detector id="sensor_156" lane="132_0" pos="0.0" endPos="775.46" freq="300" file="sensor_output.xml" friendlyPos="true" export="CSV"/>
  <e2Detector id="sensor_157" lane="132_1" pos="0.0" endPos="775.46" freq="300" file="sensor_output.xml" friendlyPos="true" export="CSV"/>
  <e2Detector id="sensor_158" lane="132_2" pos="0.0" endPos="775.46" freq="300" file="sensor_output.xml" friendlyPos="true" export="CSV"/>
  <e2Detector id="sensor_159" lane="138_0" pos="0.0" endPos="736.03" freq="300" file="sensor_output.xml" friendlyPos="true" export="CSV"/>
  <e2Detector id="sensor_160" lane="138_1" pos="0.0" endPos="736.03" freq="300" file="sensor_output.xml" friendlyPos="true" export="CSV"/>
  <e2Detector id="sensor_161" lane="138_2" pos="0.0" endPos="736.03" freq="300" file="sensor_output.xml" friendlyPos="true" export="CSV"/>
  <e2Detector id="sensor_162" lane="14_0" pos="0.0" endPos="316.82" freq="300" file="sensor_output.xml" friendlyPos="true" export="CSV"/>
  <e2Detector id="sensor_163" lane="14_1" pos="0.0" endPos="316.82" freq="300" file="sensor_output.xml" friendlyPos="true" export="CSV"/>
  <e2Detector id="sensor_164" lane="14_2" pos="0.0" endPos="316.82" freq="300" file="sensor_output.xml" friendlyPos="true" export="CSV"/>
  <e2Detector id="sensor_165" lane="141_0" pos="0.0" endPos="348.09" freq="300" file="sensor_output.xml" friendlyPos="true" export="CSV"/>
  <e2Detector id="sensor_166" lane="141_1" pos="0.0" endPos="348.09" freq="300" file="sensor_output.xml" friendlyPos="true" export="CSV"/>
  <e2Detector id="sensor_167" lane="141_2" pos="0.0" endPos="348.09" freq="300" file="sensor_output.xml" friendlyPos="true" export="CSV"/>
  <e2Detector id="sensor_168" lane="15_0" pos="0.0" endPos="789.73" freq="300" file="sensor_output.xml" friendlyPos="true" export="CSV"/>
  <e2Detector id="sensor_169" lane="15_1" pos="0.0" endPos="789.73" freq="300" file="sensor_output.xml" friendlyPos="true" export="CSV"/>
  <e2Detector id="sensor_170" lane="15_2" pos="0.0" endPos="789.73" freq="300" file="sensor_output.xml" friendlyPos="true" export="CSV"/>
  <e2Detector id="sensor_171" lane="17_0" pos="0.0" endPos="292.29" freq="300" file="sensor_output.xml" friendlyPos="true" export="CSV"/>
  <e2Detector id="sensor_172" lane="17_1" pos="0.0" endPos="292.29" freq="300" file="sensor_output.xml" friendlyPos="true" export="CSV"/>
  <e2Detector id="sensor_173" lane="17_2" pos="0.0" endPos="292.29" freq="300" file="sensor_output.xml" friendlyPos="true" export="CSV"/>
  <e2Detector id="sensor_174" lane="19_0" pos="0.0" endPos="716.46" freq="300" file="sensor_output.xml" friendlyPos="true" export="CSV"/>
  <e2Detector id="sensor_175" lane="19_1" pos="0.0" endPos="716.46" freq="300" file="sensor_output.xml" friendlyPos="true" export="CSV"/>
  <e2Detector id="sensor_176" lane="19_2" pos="0.0" endPos="716.46" freq="300" file="sensor_output.xml" friendlyPos="true" export="CSV"/>
  <e2Detector id="sensor_177" lane="21_0" pos="0.0" endPos="888.77" freq="300" file="sensor_output.xml" friendlyPos="true" export="CSV"/>
  <e2Detector id="sensor_178" lane="21_1" pos="0.0" endPos="888.77" freq="300" file="sensor_output.xml" friendlyPos="true" export="CSV"/>
  <e2Detector id="sensor_179" lane="21_2" pos="0.0" endPos="888.77" freq="300" file="sensor_output.xml" friendlyPos="true" export="CSV"/>
  <e2Detector id="sensor_180" lane="25_0" pos="0.0" endPos="801.2" freq="300" file="sensor_output.xml" friendlyPos="true" export="CSV"/>
  <e2Detector id="sensor_181" lane="25_1" pos="0.0" endPos="801.2" freq="300" file="sensor_output.xml" friendlyPos="true" export="CSV"/>
  <e2Detector id="sensor_182" lane="25_2" pos="0.0" endPos="801.2" freq="300" file="sensor_output.xml" friendlyPos="true" export="CSV"/>
  <e2Detector id="sensor_183" lane="3_0" pos="0.0" endPos="868.36" freq="300" file="sensor_output.xml" friendlyPos="true" export="CSV"/>
  <e2Detector id="sensor_184" lane="3_1" pos="0.0" endPos="868.36" freq="300" file="sensor_output.xml" friendlyPos="true" export="CSV"/>
  <e2Detector id="sensor_185" lane="3_2" pos="0.0" endPos="868.36" freq="300" file="sensor_output.xml" friendlyPos="true" export="CSV"/>
  <e2Detector id="sensor_186" lane="35_0" pos="0.0" endPos="353.23" freq="300" file="sensor_output.xml" friendlyPos="true" export="CSV"/>
  <e2Detector id="sensor_187" lane="35_1" pos="0.0" endPos="353.23" freq="300" file="sensor_output.xml" friendlyPos="true" export="CSV"/>
  <e2Detector id="sensor_188" lane="35_2" pos="0.0" endPos="353.23" freq="300" file="sensor_output.xml" friendlyPos="true" export="CSV"/>
  <e2Detector id="sensor_189" lane="39_0" pos="0.0" endPos="920.95" freq="300" file="sensor_output.xml" friendlyPos="true" export="CSV"/>
  <e2Detector id="sensor_190" lane="39_1" pos="0.0" endPos="920.95" freq="300" file="sensor_output.xml" friendlyPos="true" export="CSV"/>
  <e2Detector id="sensor_191" lane="39_2" pos="0.0" endPos="920.95" freq="300" file="sensor_output.xml" friendlyPos="true" export="CSV"/>
  <e2Detector id="sensor_192" lane="41_0" pos="0.0" endPos="670.81" freq="300" file="sensor_output.xml" friendlyPos="true" export="CSV"/>
  <e2Detector id="sensor_193" lane="41_1" pos="0.0" endPos="670.81" freq="300" file="sensor_output.xml" friendlyPos="true" export="CSV"/>
  <e2Detector id="sensor_194" lane="41_2" pos="0.0" endPos="670.81" freq="300" file="sensor_output.xml" friendlyPos="true" export="CSV"/>
  <e2Detector id="sensor_195" lane="47_0" pos="0.0" endPos="301.23" freq="300" file="sensor_output.xml" friendlyPos="true" export="CSV"/>
  <e2Detector id="sensor_196" lane="47_1" pos="0.0" endPos="301.23" freq="300" file="sensor_output.xml" friendlyPos="true" export="CSV"/>
  <e2Detector id="sensor_197" lane="47_2" pos="0.0" endPos="301.23" freq="300" file="sensor_output.xml" friendlyPos="true" export="CSV"/>
  <e2Detector id="sensor_198" lane="48_0" pos="0.0" endPos="944.44" freq="300" file="sensor_output.xml" friendlyPos="true" export="CSV"/>
  <e2Detector id="sensor_199" lane="48_1" pos="0.0" endPos="944.44" freq="300" file="sensor_output.xml" friendlyPos="true" export="CSV"/>
  <e2Detector id="sensor_200" lane="48_2" pos="0.0" endPos="944.44" freq="300" file="sensor_output.xml" friendlyPos="true" export="CSV"/>
  <e2Detector id="sensor_201" lane="5_0" pos="0.0" endPos="603.0" freq="300" file="sensor_output.xml" friendlyPos="true" export="CSV"/>
  <e2Detector id="sensor_202" lane="5_1" pos="0.0" endPos="603.0" freq="300" file="sensor_output.xml" friendlyPos="true" export="CSV"/>
  <e2Detector id="sensor_203" lane="5_2" pos="0.0" endPos="603.0" freq="300" file="sensor_output.xml" friendlyPos="true" export="CSV"/>
  <e2Detector id="sensor_204" lane="50_0" pos="0.0" endPos="469.22" freq="300" file="sensor_output.xml" friendlyPos="true" export="CSV"/>
  <e2Detector id="sensor_205" lane="50_1" pos="0.0" endPos="469.22" freq="300" file="sensor_output.xml" friendlyPos="true" export="CSV"/>
  <e2Detector id="sensor_206" lane="50_2" pos="0.0" endPos="469.22" freq="300" file="sensor_output.xml" friendlyPos="true" export="CSV"/>
  <e2Detector id="sensor_207" lane="55_0" pos="0.0" endPos="483.39" freq="300" file="sensor_output.xml" friendlyPos="true" export="CSV"/>
  <e2Detector id="sensor_208" lane="55_1" pos="0.0" endPos="483.39" freq="300" file="sensor_output.xml" friendlyPos="true" export="CSV"/>
  <e2Detector id="sensor_209" lane="55_2" pos="0.0" endPos="483.39" freq="300" file="sensor_output.xml" friendlyPos="true" export="CSV"/>
  <e2Detector id="sensor_210" lane="57_0" pos="0.0" endPos="421.94" freq="300" file="sensor_output.xml" friendlyPos="true" export="CSV"/>
  <e2Detector id="sensor_211" lane="57_1" pos="0.0" endPos="421.94" freq="300" file="sensor_output.xml" friendlyPos="true" export="CSV"/>
  <e2Detector id="sensor_212" lane="57_2" pos="0.0" endPos="421.94" freq="300" file="sensor_output.xml" friendlyPos="true" export="CSV"/>
  <e2Detector id="sensor_213" lane="66_0" pos="0.0" endPos="713.95" freq="300" file="sensor_output.xml" friendlyPos="true" export="CSV"/>
  <e2Detector id="sensor_214" lane="66_1" pos="0.0" endPos="713.95" freq="300" file="sensor_output.xml" friendlyPos="true" export="CSV"/>
  <e2Detector id="sensor_215" lane="66_2" pos="0.0" endPos="713.95" freq="300" file="sensor_output.xml" friendlyPos="true" export="CSV"/>