<configuration>
    <input>
        <net-file value="../xml_files/network_with_30_tls.net.xml"/>
        <route-files value="../routes/runtime_routes.xml,abc_final_edge_route_6.xml"/>
        <additional-files value="../xml_files/edge_sensors.add.xml,../vtypes.add.xml,../xml_files/realworld_traffic_lights.tll.xml"/>
    </input>

    <time>
        <begin value="0"/>
        <end value="14400"/>
    </time>
</configuration>
